
     RDKit          3D

 57 63  0  0  0  0  0  0  0  0999 V2000
    7.9498    0.0664    0.1148 C   0  0  0  0  0  0  0  0  0  0  0  0
    6.6962    0.2341    0.8159 N   0  0  0  0  0  0  0  0  0  0  0  0
    6.5058    1.0709    1.8837 C   0  0  0  0  0  0  0  0  0  0  0  0
    5.1925    0.9580    2.2788 C   0  0  0  0  0  0  0  0  0  0  0  0
    4.5597    0.0199    1.4184 C   0  0  0  0  0  0  0  0  0  0  0  0
    3.2500   -0.4930    1.3351 C   0  0  0  0  0  0  0  0  0  0  0  0
    2.9354   -1.4242    0.3330 C   0  0  0  0  0  0  0  0  0  0  0  0
    1.5847   -1.9631    0.2367 C   0  0  0  0  0  0  0  0  0  0  0  0
    1.2353   -3.3201    0.5477 C   0  0  0  0  0  0  0  0  0  0  0  0
   -0.1109   -3.5621    0.4151 C   0  0  0  0  0  0  0  0  0  0  0  0
   -0.9594   -2.1716   -0.0831 S   0  0  0  0  0  0  0  0  0  0  0  0
    0.4761   -1.2148   -0.1451 C   0  0  0  0  0  0  0  0  0  0  0  0
    0.3736    0.1643   -0.5640 C   0  0  0  0  0  0  0  0  0  0  0  0
    1.3197    0.9952   -1.1368 C   0  0  0  0  0  0  0  0  0  0  0  0
    0.7030    2.2525   -1.3532 C   0  0  0  0  0  0  0  0  0  0  0  0
   -0.6083    2.1508   -0.9207 C   0  0  0  0  0  0  0  0  0  0  0  0
   -1.6642    3.1400   -0.9221 C   0  0  0  0  0  0  0  0  0  0  0  0
   -1.3045    4.8029   -1.2037 S   0  0  0  0  0  0  0  0  0  0  0  0
   -2.9310    5.2746   -1.0154 C   0  0  0  0  0  0  0  0  0  0  0  0
   -3.7475    4.2015   -0.7513 C   0  0  0  0  0  0  0  0  0  0  0  0
   -3.0272    2.9628   -0.7049 C   0  0  0  0  0  0  0  0  0  0  0  0
   -3.6425    1.6636   -0.4629 C   0  0  0  0  0  0  0  0  0  0  0  0
   -3.8314    0.7707   -1.5216 C   0  0  0  0  0  0  0  0  0  0  0  0
   -4.4228   -0.4800   -1.3144 C   0  0  0  0  0  0  0  0  0  0  0  0
   -4.8248   -0.8094   -0.0103 C   0  0  0  0  0  0  0  0  0  0  0  0
   -4.6580    0.0703    1.0633 C   0  0  0  0  0  0  0  0  0  0  0  0
   -5.1683   -0.5764    2.2222 C   0  0  0  0  0  0  0  0  0  0  0  0
   -5.6237   -1.8189    1.8439 C   0  0  0  0  0  0  0  0  0  0  0  0
   -5.4074   -1.9524    0.4978 N   0  0  0  0  0  0  0  0  0  0  0  0
   -5.7318   -3.1290   -0.2768 C   0  0  0  0  0  0  0  0  0  0  0  0
   -4.0628    1.3269    0.8329 C   0  0  0  0  0  0  0  0  0  0  0  0
   -0.7901    0.8790   -0.4462 O   0  0  0  0  0  0  0  0  0  0  0  0
    3.9187   -1.8570   -0.5610 C   0  0  0  0  0  0  0  0  0  0  0  0
    5.2258   -1.3624   -0.4932 C   0  0  0  0  0  0  0  0  0  0  0  0
    5.5219   -0.4216    0.5055 C   0  0  0  0  0  0  0  0  0  0  0  0
    8.2330   -0.9881    0.1587 H   0  0  0  0  0  0  0  0  0  0  0  0
    8.7215    0.6759    0.5925 H   0  0  0  0  0  0  0  0  0  0  0  0
    7.8115    0.3890   -0.9202 H   0  0  0  0  0  0  0  0  0  0  0  0
    7.3111    1.6772    2.2782 H   0  0  0  0  0  0  0  0  0  0  0  0
    4.7321    1.4935    3.0990 H   0  0  0  0  0  0  0  0  0  0  0  0
    2.4930   -0.1606    2.0406 H   0  0  0  0  0  0  0  0  0  0  0  0
    1.9434   -4.0737    0.8716 H   0  0  0  0  0  0  0  0  0  0  0  0
   -0.6394   -4.4877    0.5963 H   0  0  0  0  0  0  0  0  0  0  0  0
    2.3401    0.7340   -1.3789 H   0  0  0  0  0  0  0  0  0  0  0  0
    1.1667    3.1277   -1.7858 H   0  0  0  0  0  0  0  0  0  0  0  0
   -3.2137    6.3139   -1.1088 H   0  0  0  0  0  0  0  0  0  0  0  0
   -4.8176    4.2901   -0.6050 H   0  0  0  0  0  0  0  0  0  0  0  0
   -3.5021    1.0374   -2.5238 H   0  0  0  0  0  0  0  0  0  0  0  0
   -4.5485   -1.1717   -2.1407 H   0  0  0  0  0  0  0  0  0  0  0  0
   -5.1914   -0.1745    3.2265 H   0  0  0  0  0  0  0  0  0  0  0  0
   -6.0731   -2.6122    2.4259 H   0  0  0  0  0  0  0  0  0  0  0  0
   -4.8106   -3.5162   -0.7199 H   0  0  0  0  0  0  0  0  0  0  0  0
   -6.1760   -3.8864    0.3745 H   0  0  0  0  0  0  0  0  0  0  0  0
   -6.4466   -2.8457   -1.0536 H   0  0  0  0  0  0  0  0  0  0  0  0
   -3.9168    2.0165    1.6593 H   0  0  0  0  0  0  0  0  0  0  0  0
    3.6719   -2.5846   -1.3321 H   0  0  0  0  0  0  0  0  0  0  0  0
    5.9801   -1.7020   -1.1957 H   0  0  0  0  0  0  0  0  0  0  0  0
  1  2  1  0
  2  3  1  0
  3  4  2  0
  4  5  1  0
  5  6  2  0
  6  7  1  0
  7  8  1  0
  8  9  1  0
  9 10  2  0
 10 11  1  0
 11 12  1  0
 12 13  1  0
 13 14  2  0
 14 15  1  0
 15 16  2  0
 16 17  1  0
 17 18  1  0
 18 19  1  0
 19 20  2  0
 20 21  1  0
 21 22  1  0
 22 23  2  0
 23 24  1  0
 24 25  2  0
 25 26  1  0
 26 27  1  0
 27 28  2  0
 28 29  1  0
 29 30  1  0
 26 31  2  0
 16 32  1  0
  7 33  2  0
 33 34  1  0
 34 35  2  0
 35  2  1  0
 35  5  1  0
 12  8  2  0
 32 13  1  0
 21 17  2  0
 31 22  1  0
 29 25  1  0
  1 36  1  0
  1 37  1  0
  1 38  1  0
  3 39  1  0
  4 40  1  0
  6 41  1  0
  9 42  1  0
 10 43  1  0
 14 44  1  0
 15 45  1  0
 19 46  1  0
 20 47  1  0
 23 48  1  0
 24 49  1  0
 27 50  1  0
 28 51  1  0
 30 52  1  0
 30 53  1  0
 30 54  1  0
 31 55  1  0
 33 56  1  0
 34 57  1  0
M  END
$$$$
