
     RDKit          3D

 61 67  0  0  0  0  0  0  0  0999 V2000
   13.2535    0.4662    1.2154 C   0  0  0  0  0  0  0  0  0  0  0  0
   12.0307    1.0071    0.8961 C   0  0  0  0  0  0  0  0  0  0  0  0
   11.1183   -0.0253    0.9723 N   0  0  0  0  0  0  0  0  0  0  0  0
    9.7148    0.0373    0.7287 C   0  0  0  0  0  0  0  0  0  0  0  0
    8.9157   -1.1073    0.8473 C   0  0  0  0  0  0  0  0  0  0  0  0
    7.5364   -1.0383    0.6072 C   0  0  0  0  0  0  0  0  0  0  0  0
    6.9186    0.1665    0.2428 C   0  0  0  0  0  0  0  0  0  0  0  0
    5.4704    0.2341   -0.0090 C   0  0  0  0  0  0  0  0  0  0  0  0
    4.5463   -0.2224    0.9416 C   0  0  0  0  0  0  0  0  0  0  0  0
    3.1650   -0.1556    0.7062 C   0  0  0  0  0  0  0  0  0  0  0  0
    2.6596    0.3696   -0.4923 C   0  0  0  0  0  0  0  0  0  0  0  0
    1.2198    0.4698   -0.7979 C   0  0  0  0  0  0  0  0  0  0  0  0
    0.7282    1.0288   -1.8876 N   0  0  0  0  0  0  0  0  0  0  0  0
   -0.6482    0.9945   -1.9343 N   0  0  0  0  0  0  0  0  0  0  0  0
   -1.1835    0.4029   -0.8832 C   0  0  0  0  0  0  0  0  0  0  0  0
   -2.6336    0.2358   -0.6720 C   0  0  0  0  0  0  0  0  0  0  0  0
   -3.1837   -0.5134    0.3786 C   0  0  0  0  0  0  0  0  0  0  0  0
   -4.5728   -0.6358    0.5300 C   0  0  0  0  0  0  0  0  0  0  0  0
   -5.4605   -0.0173   -0.3622 C   0  0  0  0  0  0  0  0  0  0  0  0
   -6.9172   -0.1475   -0.1992 C   0  0  0  0  0  0  0  0  0  0  0  0
   -7.5420    0.1697    1.0154 C   0  0  0  0  0  0  0  0  0  0  0  0
   -8.9288    0.0472    1.1764 C   0  0  0  0  0  0  0  0  0  0  0  0
   -9.7292   -0.4002    0.1172 C   0  0  0  0  0  0  0  0  0  0  0  0
  -11.1405   -0.5289    0.2748 N   0  0  0  0  0  0  0  0  0  0  0  0
  -12.0554   -0.9524   -0.6673 C   0  0  0  0  0  0  0  0  0  0  0  0
  -13.2859   -0.9127   -0.0556 C   0  0  0  0  0  0  0  0  0  0  0  0
  -13.1723   -0.4796    1.2320 N   0  0  0  0  0  0  0  0  0  0  0  0
  -11.8872   -0.2575    1.4032 C   0  0  0  0  0  0  0  0  0  0  0  0
   -9.1156   -0.7197   -1.1009 C   0  0  0  0  0  0  0  0  0  0  0  0
   -7.7281   -0.5928   -1.2527 C   0  0  0  0  0  0  0  0  0  0  0  0
   -4.9120    0.7277   -1.4145 C   0  0  0  0  0  0  0  0  0  0  0  0
   -3.5248    0.8511   -1.5660 C   0  0  0  0  0  0  0  0  0  0  0  0
   -0.0041   -0.1467    0.2433 S   0  0  0  0  0  0  0  0  0  0  0  0
    3.5876    0.8258   -1.4425 C   0  0  0  0  0  0  0  0  0  0  0  0
    4.9668    0.7597   -1.2062 C   0  0  0  0  0  0  0  0  0  0  0  0
    7.7283    1.3051    0.1261 C   0  0  0  0  0  0  0  0  0  0  0  0
    9.1078    1.2464    0.3658 C   0  0  0  0  0  0  0  0  0  0  0  0
   11.8586   -1.1319    1.3356 C   0  0  0  0  0  0  0  0  0  0  0  0
   13.1375   -0.8645    1.4876 N   0  0  0  0  0  0  0  0  0  0  0  0
   14.2102    0.9706    1.2620 H   0  0  0  0  0  0  0  0  0  0  0  0
   11.7637    2.0177    0.6304 H   0  0  0  0  0  0  0  0  0  0  0  0
    9.3215   -2.0765    1.1209 H   0  0  0  0  0  0  0  0  0  0  0  0
    6.9445   -1.9481    0.6957 H   0  0  0  0  0  0  0  0  0  0  0  0
    4.8956   -0.6256    1.8909 H   0  0  0  0  0  0  0  0  0  0  0  0
    2.5046   -0.5198    1.4891 H   0  0  0  0  0  0  0  0  0  0  0  0
   -2.5530   -1.0261    1.1005 H   0  0  0  0  0  0  0  0  0  0  0  0
   -4.9576   -1.2368    1.3526 H   0  0  0  0  0  0  0  0  0  0  0  0
   -6.9488    0.5320    1.8538 H   0  0  0  0  0  0  0  0  0  0  0  0
   -9.3392    0.3156    2.1451 H   0  0  0  0  0  0  0  0  0  0  0  0
  -11.7846   -1.2427   -1.6700 H   0  0  0  0  0  0  0  0  0  0  0  0
  -14.2466   -1.1746   -0.4804 H   0  0  0  0  0  0  0  0  0  0  0  0
  -11.4575    0.0993    2.3279 H   0  0  0  0  0  0  0  0  0  0  0  0
   -9.6783   -1.0739   -1.9592 H   0  0  0  0  0  0  0  0  0  0  0  0
   -7.2806   -0.8596   -2.2091 H   0  0  0  0  0  0  0  0  0  0  0  0
   -5.5620    1.2343   -2.1259 H   0  0  0  0  0  0  0  0  0  0  0  0
   -3.1434    1.4437   -2.3975 H   0  0  0  0  0  0  0  0  0  0  0  0
    3.2421    1.2404   -2.3895 H   0  0  0  0  0  0  0  0  0  0  0  0
    5.6465    1.1157   -1.9785 H   0  0  0  0  0  0  0  0  0  0  0  0
    7.2853    2.2626   -0.1443 H   0  0  0  0  0  0  0  0  0  0  0  0
    9.6697    2.1693    0.2596 H   0  0  0  0  0  0  0  0  0  0  0  0
   11.4289   -2.1127    1.4790 H   0  0  0  0  0  0  0  0  0  0  0  0
  1  2  2  0
  2  3  1  0
  3  4  1  0
  4  5  2  0
  5  6  1  0
  6  7  2  0
  7  8  1  0
  8  9  2  0
  9 10  1  0
 10 11  2  0
 11 12  1  0
 12 13  2  0
 13 14  1  0
 14 15  2  0
 15 16  1  0
 16 17  2  0
 17 18  1  0
 18 19  2  0
 19 20  1  0
 20 21  2  0
 21 22  1  0
 22 23  2  0
 23 24  1  0
 24 25  1  0
 25 26  2  0
 26 27  1  0
 27 28  2  0
 23 29  1  0
 29 30  2  0
 19 31  1  0
 31 32  2  0
 15 33  1  0
 11 34  1  0
 34 35  2  0
  7 36  1  0
 36 37  2  0
  3 38  1  0
 38 39  2  0
 39  1  1  0
 37  4  1  0
 35  8  1  0
 33 12  1  0
 32 16  1  0
 30 20  1  0
 28 24  1  0
  1 40  1  0
  2 41  1  0
  5 42  1  0
  6 43  1  0
  9 44  1  0
 10 45  1  0
 17 46  1  0
 18 47  1  0
 21 48  1  0
 22 49  1  0
 25 50  1  0
 26 51  1  0
 28 52  1  0
 29 53  1  0
 30 54  1  0
 31 55  1  0
 32 56  1  0
 34 57  1  0
 35 58  1  0
 36 59  1  0
 37 60  1  0
 38 61  1  0
M  END
$$$$
