
     RDKit          3D

 51 55  0  0  0  0  0  0  0  0999 V2000
   -4.9347   -2.7046   -1.8829 C   0  0  0  0  0  0  0  0  0  0  0  0
   -3.6417   -2.0716   -1.7509 N   0  0  0  0  0  0  0  0  0  0  0  0
   -2.8115   -1.7674   -2.7974 C   0  0  0  0  0  0  0  0  0  0  0  0
   -1.6828   -1.1737   -2.2803 C   0  0  0  0  0  0  0  0  0  0  0  0
   -1.8322   -1.1160   -0.8682 C   0  0  0  0  0  0  0  0  0  0  0  0
   -1.0223   -0.6280    0.1755 C   0  0  0  0  0  0  0  0  0  0  0  0
   -1.4661   -0.7126    1.5033 C   0  0  0  0  0  0  0  0  0  0  0  0
   -0.6209   -0.2420    2.6057 C   0  0  0  0  0  0  0  0  0  0  0  0
   -0.1305    0.9945    2.7995 C   0  0  0  0  0  0  0  0  0  0  0  0
   -0.3531    2.1875    2.0402 C   0  0  0  0  0  0  0  0  0  0  0  0
   -1.5232    2.5614    1.3296 C   0  0  0  0  0  0  0  0  0  0  0  0
   -1.2820    3.8142    0.8299 C   0  0  0  0  0  0  0  0  0  0  0  0
   -0.0510    4.2399    1.1945 O   0  0  0  0  0  0  0  0  0  0  0  0
    0.5597    3.2412    1.9236 C   0  0  0  0  0  0  0  0  0  0  0  0
    1.8813    3.4033    2.4281 C   0  0  0  0  0  0  0  0  0  0  0  0
    2.9205    2.6249    2.0831 C   0  0  0  0  0  0  0  0  0  0  0  0
    2.9106    1.5175    1.1176 C   0  0  0  0  0  0  0  0  0  0  0  0
    3.2535    0.2320    1.5425 C   0  0  0  0  0  0  0  0  0  0  0  0
    3.2481   -0.8523    0.6570 C   0  0  0  0  0  0  0  0  0  0  0  0
    2.9008   -0.6083   -0.6804 C   0  0  0  0  0  0  0  0  0  0  0  0
    2.5786    0.6711   -1.1400 C   0  0  0  0  0  0  0  0  0  0  0  0
    2.2871    0.5616   -2.5269 C   0  0  0  0  0  0  0  0  0  0  0  0
    2.4238   -0.7610   -2.8813 C   0  0  0  0  0  0  0  0  0  0  0  0
    2.7842   -1.4601   -1.7596 N   0  0  0  0  0  0  0  0  0  0  0  0
    2.9943   -2.8895   -1.7124 C   0  0  0  0  0  0  0  0  0  0  0  0
    2.5861    1.7460   -0.2290 C   0  0  0  0  0  0  0  0  0  0  0  0
   -2.7014   -1.2997    1.7866 C   0  0  0  0  0  0  0  0  0  0  0  0
   -3.5256   -1.7910    0.7665 C   0  0  0  0  0  0  0  0  0  0  0  0
   -3.0684   -1.6869   -0.5561 C   0  0  0  0  0  0  0  0  0  0  0  0
   -5.6930   -2.0299   -1.4776 H   0  0  0  0  0  0  0  0  0  0  0  0
   -4.9171   -3.6462   -1.3283 H   0  0  0  0  0  0  0  0  0  0  0  0
   -5.1409   -2.9012   -2.9381 H   0  0  0  0  0  0  0  0  0  0  0  0
   -3.0846   -1.9913   -3.8200 H   0  0  0  0  0  0  0  0  0  0  0  0
   -0.8364   -0.8139   -2.8506 H   0  0  0  0  0  0  0  0  0  0  0  0
   -0.0586   -0.1841   -0.0560 H   0  0  0  0  0  0  0  0  0  0  0  0
   -0.3507   -1.0203    3.3166 H   0  0  0  0  0  0  0  0  0  0  0  0
    0.5342    1.1079    3.6552 H   0  0  0  0  0  0  0  0  0  0  0  0
   -2.4373    1.9982    1.2066 H   0  0  0  0  0  0  0  0  0  0  0  0
   -1.8605    4.5066    0.2356 H   0  0  0  0  0  0  0  0  0  0  0  0
    2.0431    4.2393    3.1014 H   0  0  0  0  0  0  0  0  0  0  0  0
    3.8934    2.8247    2.5268 H   0  0  0  0  0  0  0  0  0  0  0  0
    3.5126    0.0541    2.5838 H   0  0  0  0  0  0  0  0  0  0  0  0
    3.4971   -1.8488    1.0059 H   0  0  0  0  0  0  0  0  0  0  0  0
    1.9993    1.3669   -3.1895 H   0  0  0  0  0  0  0  0  0  0  0  0
    2.2847   -1.2544   -3.8341 H   0  0  0  0  0  0  0  0  0  0  0  0
    2.8242   -3.3183   -2.7032 H   0  0  0  0  0  0  0  0  0  0  0  0
    4.0247   -3.0773   -1.4001 H   0  0  0  0  0  0  0  0  0  0  0  0
    2.2877   -3.3194   -0.9977 H   0  0  0  0  0  0  0  0  0  0  0  0
    2.3259    2.7434   -0.5731 H   0  0  0  0  0  0  0  0  0  0  0  0
   -3.0434   -1.3756    2.8168 H   0  0  0  0  0  0  0  0  0  0  0  0
   -4.4856   -2.2379    1.0024 H   0  0  0  0  0  0  0  0  0  0  0  0
  1  2  1  0
  2  3  1  0
  3  4  2  0
  4  5  1  0
  5  6  2  0
  6  7  1  0
  7  8  1  0
  8  9  2  0
  9 10  1  0
 10 11  1  0
 11 12  2  0
 12 13  1  0
 13 14  1  0
 14 15  1  0
 15 16  2  0
 16 17  1  0
 17 18  2  0
 18 19  1  0
 19 20  2  0
 20 21  1  0
 21 22  1  0
 22 23  2  0
 23 24  1  0
 24 25  1  0
 21 26  2  0
  7 27  2  0
 27 28  1  0
 28 29  2  0
 29  2  1  0
 29  5  1  0
 14 10  2  0
 26 17  1  0
 24 20  1  0
  1 30  1  0
  1 31  1  0
  1 32  1  0
  3 33  1  0
  4 34  1  0
  6 35  1  0
  8 36  1  0
  9 37  1  0
 11 38  1  0
 12 39  1  0
 15 40  1  0
 16 41  1  0
 18 42  1  0
 19 43  1  0
 22 44  1  0
 23 45  1  0
 25 46  1  0
 25 47  1  0
 25 48  1  0
 26 49  1  0
 27 50  1  0
 28 51  1  0
M  END
$$$$
