
     RDKit          3D

 86 92  0  0  0  0  0  0  0  0999 V2000
  -14.2236    2.1130   -2.3798 C   0  0  0  0  0  0  0  0  0  0  0  0
  -13.5766    0.8094   -1.8882 C   0  0  0  0  0  0  0  0  0  0  0  0
  -13.6963   -0.2446   -2.9941 C   0  0  0  0  0  0  0  0  0  0  0  0
  -14.2786    0.3689   -0.5988 C   0  0  0  0  0  0  0  0  0  0  0  0
  -12.1915    1.1563   -1.6374 O   0  0  0  0  0  0  0  0  0  0  0  0
  -11.3220    0.2184   -1.1824 C   0  0  0  0  0  0  0  0  0  0  0  0
  -11.5414   -0.9595   -0.9498 O   0  0  0  0  0  0  0  0  0  0  0  0
  -10.0480    0.7970   -0.9830 N   0  0  0  0  0  0  0  0  0  0  0  0
   -9.7074    2.1242   -1.2200 C   0  0  0  0  0  0  0  0  0  0  0  0
   -8.3889    2.3242   -0.8943 C   0  0  0  0  0  0  0  0  0  0  0  0
   -7.8705    1.0886   -0.4390 C   0  0  0  0  0  0  0  0  0  0  0  0
   -6.6003    0.6905    0.0297 C   0  0  0  0  0  0  0  0  0  0  0  0
   -6.3645   -0.6360    0.4338 C   0  0  0  0  0  0  0  0  0  0  0  0
   -5.0449   -1.0433    0.9433 C   0  0  0  0  0  0  0  0  0  0  0  0
   -4.9138   -1.6500    2.2015 C   0  0  0  0  0  0  0  0  0  0  0  0
   -3.6596   -2.0303    2.6980 C   0  0  0  0  0  0  0  0  0  0  0  0
   -2.4976   -1.8180    1.9458 C   0  0  0  0  0  0  0  0  0  0  0  0
   -1.1717   -2.1946    2.4328 C   0  0  0  0  0  0  0  0  0  0  0  0
   -0.9335   -3.0848    3.4597 C   0  0  0  0  0  0  0  0  0  0  0  0
    0.7496   -3.2469    3.7239 S   0  0  0  0  0  0  0  0  0  0  0  0
    1.0636   -2.1254    2.4525 C   0  0  0  0  0  0  0  0  0  0  0  0
    2.4365   -1.7342    2.0701 C   0  0  0  0  0  0  0  0  0  0  0  0
    3.5757   -2.0671    2.8178 C   0  0  0  0  0  0  0  0  0  0  0  0
    4.8533   -1.6544    2.4122 C   0  0  0  0  0  0  0  0  0  0  0  0
    5.0390   -0.8953    1.2478 C   0  0  0  0  0  0  0  0  0  0  0  0
    6.3815   -0.4483    0.8382 C   0  0  0  0  0  0  0  0  0  0  0  0
    7.4408   -1.3554    0.7159 C   0  0  0  0  0  0  0  0  0  0  0  0
    8.7300   -0.9489    0.3452 C   0  0  0  0  0  0  0  0  0  0  0  0
    8.9593    0.4151    0.0912 C   0  0  0  0  0  0  0  0  0  0  0  0
    7.9228    1.3477    0.1974 C   0  0  0  0  0  0  0  0  0  0  0  0
    8.4578    2.6195   -0.1172 C   0  0  0  0  0  0  0  0  0  0  0  0
    9.7892    2.4481   -0.4036 C   0  0  0  0  0  0  0  0  0  0  0  0
   10.1218    1.1039   -0.2785 N   0  0  0  0  0  0  0  0  0  0  0  0
   11.4032    0.5442   -0.4834 C   0  0  0  0  0  0  0  0  0  0  0  0
   11.6160   -0.6505   -0.3550 O   0  0  0  0  0  0  0  0  0  0  0  0
   12.2851    1.5187   -0.8211 O   0  0  0  0  0  0  0  0  0  0  0  0
   13.6748    1.1955   -1.0774 C   0  0  0  0  0  0  0  0  0  0  0  0
   14.3349    2.5427   -1.4080 C   0  0  0  0  0  0  0  0  0  0  0  0
   14.3486    0.6111    0.1693 C   0  0  0  0  0  0  0  0  0  0  0  0
   13.8129    0.2690   -2.2899 C   0  0  0  0  0  0  0  0  0  0  0  0
    6.6344    0.9096    0.5714 C   0  0  0  0  0  0  0  0  0  0  0  0
    3.9015   -0.5655    0.4977 C   0  0  0  0  0  0  0  0  0  0  0  0
    2.6249   -0.9763    0.9033 C   0  0  0  0  0  0  0  0  0  0  0  0
   -0.0232   -1.6691    1.8568 N   0  0  0  0  0  0  0  0  0  0  0  0
   -2.6237   -1.2086    0.6903 C   0  0  0  0  0  0  0  0  0  0  0  0
   -3.8782   -0.8284    0.1959 C   0  0  0  0  0  0  0  0  0  0  0  0
   -7.4180   -1.5537    0.3500 C   0  0  0  0  0  0  0  0  0  0  0  0
   -8.6878   -1.1861   -0.1139 C   0  0  0  0  0  0  0  0  0  0  0  0
   -8.9032    0.1477   -0.5037 C   0  0  0  0  0  0  0  0  0  0  0  0
  -15.2861    1.9790   -2.6087 H   0  0  0  0  0  0  0  0  0  0  0  0
  -13.7181    2.4822   -3.2800 H   0  0  0  0  0  0  0  0  0  0  0  0
  -14.1290    2.9037   -1.6261 H   0  0  0  0  0  0  0  0  0  0  0  0
  -14.7402   -0.3906   -3.2926 H   0  0  0  0  0  0  0  0  0  0  0  0
  -13.1194    0.0518   -3.8777 H   0  0  0  0  0  0  0  0  0  0  0  0
  -13.3075   -1.2168   -2.6762 H   0  0  0  0  0  0  0  0  0  0  0  0
  -15.3574    0.2557   -0.7501 H   0  0  0  0  0  0  0  0  0  0  0  0
  -13.8972   -0.5885   -0.2314 H   0  0  0  0  0  0  0  0  0  0  0  0
  -14.1139    1.0988    0.2021 H   0  0  0  0  0  0  0  0  0  0  0  0
  -10.4439    2.8201   -1.6000 H   0  0  0  0  0  0  0  0  0  0  0  0
   -7.8534    3.2619   -0.9722 H   0  0  0  0  0  0  0  0  0  0  0  0
   -5.8048    1.4293    0.0933 H   0  0  0  0  0  0  0  0  0  0  0  0
   -5.7946   -1.8162    2.8198 H   0  0  0  0  0  0  0  0  0  0  0  0
   -3.6174   -2.4750    3.6882 H   0  0  0  0  0  0  0  0  0  0  0  0
   -1.6340   -3.6477    4.0577 H   0  0  0  0  0  0  0  0  0  0  0  0
    3.5021   -2.6416    3.7374 H   0  0  0  0  0  0  0  0  0  0  0  0
    5.7091   -1.9203    3.0306 H   0  0  0  0  0  0  0  0  0  0  0  0
    7.2708   -2.4149    0.9032 H   0  0  0  0  0  0  0  0  0  0  0  0
    9.5232   -1.6871    0.2622 H   0  0  0  0  0  0  0  0  0  0  0  0
    7.9250    3.5616   -0.1307 H   0  0  0  0  0  0  0  0  0  0  0  0
   10.5401    3.1742   -0.6861 H   0  0  0  0  0  0  0  0  0  0  0  0
   13.8517    3.0104   -2.2736 H   0  0  0  0  0  0  0  0  0  0  0  0
   14.2240    3.2459   -0.5742 H   0  0  0  0  0  0  0  0  0  0  0  0
   15.4020    2.4296   -1.6256 H   0  0  0  0  0  0  0  0  0  0  0  0
   13.9747   -0.3901    0.4044 H   0  0  0  0  0  0  0  0  0  0  0  0
   15.4329    0.5325    0.0367 H   0  0  0  0  0  0  0  0  0  0  0  0
   14.1501    1.2358    1.0478 H   0  0  0  0  0  0  0  0  0  0  0  0
   14.8619    0.1464   -2.5800 H   0  0  0  0  0  0  0  0  0  0  0  0
   13.2576    0.6655   -3.1479 H   0  0  0  0  0  0  0  0  0  0  0  0
   13.4101   -0.7286   -2.0886 H   0  0  0  0  0  0  0  0  0  0  0  0
    5.8366    1.6422    0.6688 H   0  0  0  0  0  0  0  0  0  0  0  0
    3.9981    0.0119   -0.4200 H   0  0  0  0  0  0  0  0  0  0  0  0
    1.7663   -0.6957    0.2935 H   0  0  0  0  0  0  0  0  0  0  0  0
   -1.7407   -1.0253    0.0804 H   0  0  0  0  0  0  0  0  0  0  0  0
   -3.9352   -0.3675   -0.7882 H   0  0  0  0  0  0  0  0  0  0  0  0
   -7.2578   -2.5903    0.6445 H   0  0  0  0  0  0  0  0  0  0  0  0
   -9.4782   -1.9302   -0.1629 H   0  0  0  0  0  0  0  0  0  0  0  0
  1  2  1  0
  2  3  1  0
  2  4  1  0
  2  5  1  0
  5  6  1  0
  6  7  2  0
  6  8  1  0
  8  9  1  0
  9 10  2  0
 10 11  1  0
 11 12  2  0
 12 13  1  0
 13 14  1  0
 14 15  2  0
 15 16  1  0
 16 17  2  0
 17 18  1  0
 18 19  2  0
 19 20  1  0
 20 21  1  0
 21 22  1  0
 22 23  2  0
 23 24  1  0
 24 25  2  0
 25 26  1  0
 26 27  2  0
 27 28  1  0
 28 29  2  0
 29 30  1  0
 30 31  1  0
 31 32  2  0
 32 33  1  0
 33 34  1  0
 34 35  2  0
 34 36  1  0
 36 37  1  0
 37 38  1  0
 37 39  1  0
 37 40  1  0
 30 41  2  0
 25 42  1  0
 42 43  2  0
 21 44  2  0
 17 45  1  0
 45 46  2  0
 13 47  2  0
 47 48  1  0
 48 49  2  0
 49  8  1  0
 49 11  1  0
 46 14  1  0
 44 18  1  0
 43 22  1  0
 41 26  1  0
 33 29  1  0
  1 50  1  0
  1 51  1  0
  1 52  1  0
  3 53  1  0
  3 54  1  0
  3 55  1  0
  4 56  1  0
  4 57  1  0
  4 58  1  0
  9 59  1  0
 10 60  1  0
 12 61  1  0
 15 62  1  0
 16 63  1  0
 19 64  1  0
 23 65  1  0
 24 66  1  0
 27 67  1  0
 28 68  1  0
 31 69  1  0
 32 70  1  0
 38 71  1  0
 38 72  1  0
 38 73  1  0
 39 74  1  0
 39 75  1  0
 39 76  1  0
 40 77  1  0
 40 78  1  0
 40 79  1  0
 41 80  1  0
 42 81  1  0
 43 82  1  0
 45 83  1  0
 46 84  1  0
 47 85  1  0
 48 86  1  0
M  END
$$$$
