
     RDKit          3D

 84 90  0  0  0  0  0  0  0  0999 V2000
  -14.1440   -1.4391   -0.9333 C   0  0  0  0  0  0  0  0  0  0  0  0
  -13.9159    0.0227   -1.3329 C   0  0  0  0  0  0  0  0  0  0  0  0
  -15.1322    0.8491   -0.8881 C   0  0  0  0  0  0  0  0  0  0  0  0
  -13.7405    0.1815   -2.8469 C   0  0  0  0  0  0  0  0  0  0  0  0
  -12.7967    0.5950   -0.6098 O   0  0  0  0  0  0  0  0  0  0  0  0
  -11.5467    0.0916   -0.7666 C   0  0  0  0  0  0  0  0  0  0  0  0
  -11.1913   -0.8290   -1.4846 O   0  0  0  0  0  0  0  0  0  0  0  0
  -10.6378    0.7925    0.0579 N   0  0  0  0  0  0  0  0  0  0  0  0
  -10.9524    1.8466    0.9087 C   0  0  0  0  0  0  0  0  0  0  0  0
   -9.8190    2.2625    1.5616 C   0  0  0  0  0  0  0  0  0  0  0  0
   -8.7483    1.4530    1.1138 C   0  0  0  0  0  0  0  0  0  0  0  0
   -7.3735    1.4124    1.4298 C   0  0  0  0  0  0  0  0  0  0  0  0
   -6.5194    0.4835    0.8090 C   0  0  0  0  0  0  0  0  0  0  0  0
   -5.0927    0.4354    1.1498 C   0  0  0  0  0  0  0  0  0  0  0  0
   -4.6568    0.2213    2.4605 C   0  0  0  0  0  0  0  0  0  0  0  0
   -3.2914    0.1657    2.7508 C   0  0  0  0  0  0  0  0  0  0  0  0
   -2.3716    0.3278    1.7189 C   0  0  0  0  0  0  0  0  0  0  0  0
   -0.9240    0.2690    1.9540 C   0  0  0  0  0  0  0  0  0  0  0  0
   -0.2125    0.3338    3.1386 C   0  0  0  0  0  0  0  0  0  0  0  0
    1.1598    0.2096    3.0443 N   0  0  0  0  0  0  0  0  0  0  0  0
    1.5142    0.0644    1.7784 C   0  0  0  0  0  0  0  0  0  0  0  0
    2.9070   -0.1165    1.3217 C   0  0  0  0  0  0  0  0  0  0  0  0
    3.9358   -0.2626    2.2476 C   0  0  0  0  0  0  0  0  0  0  0  0
    5.2416   -0.4519    1.7916 C   0  0  0  0  0  0  0  0  0  0  0  0
    5.5136   -0.4896    0.4204 C   0  0  0  0  0  0  0  0  0  0  0  0
    6.8744   -0.7008   -0.0956 C   0  0  0  0  0  0  0  0  0  0  0  0
    7.9505    0.0625    0.3695 C   0  0  0  0  0  0  0  0  0  0  0  0
    9.2586   -0.1277   -0.0996 C   0  0  0  0  0  0  0  0  0  0  0  0
    9.4986   -1.1197   -1.0690 C   0  0  0  0  0  0  0  0  0  0  0  0
    8.4402   -1.8977   -1.5577 C   0  0  0  0  0  0  0  0  0  0  0  0
    8.9694   -2.7986   -2.5114 C   0  0  0  0  0  0  0  0  0  0  0  0
   10.3172   -2.5640   -2.5926 C   0  0  0  0  0  0  0  0  0  0  0  0
   10.6705   -1.5432   -1.7166 N   0  0  0  0  0  0  0  0  0  0  0  0
   12.0020   -1.0891   -1.5757 C   0  0  0  0  0  0  0  0  0  0  0  0
   12.8991   -1.5816   -2.2434 O   0  0  0  0  0  0  0  0  0  0  0  0
   12.0956   -0.1052   -0.6530 O   0  0  0  0  0  0  0  0  0  0  0  0
   13.3793    0.5020   -0.3570 C   0  0  0  0  0  0  0  0  0  0  0  0
   13.9509    1.2165   -1.5866 C   0  0  0  0  0  0  0  0  0  0  0  0
   13.0773    1.5502    0.7249 C   0  0  0  0  0  0  0  0  0  0  0  0
   14.3616   -0.5253    0.2167 C   0  0  0  0  0  0  0  0  0  0  0  0
    7.1332   -1.6832   -1.0669 C   0  0  0  0  0  0  0  0  0  0  0  0
    4.4168   -0.3232   -0.4247 C   0  0  0  0  0  0  0  0  0  0  0  0
    3.1363   -0.1424   -0.0142 N   0  0  0  0  0  0  0  0  0  0  0  0
    0.1998    0.0745    0.6643 S   0  0  0  0  0  0  0  0  0  0  0  0
   -2.7639    0.5443    0.4426 N   0  0  0  0  0  0  0  0  0  0  0  0
   -4.0960    0.5914    0.1903 C   0  0  0  0  0  0  0  0  0  0  0  0
   -7.0645   -0.3979   -0.1313 C   0  0  0  0  0  0  0  0  0  0  0  0
   -8.4263   -0.3826   -0.4591 C   0  0  0  0  0  0  0  0  0  0  0  0
   -9.2627    0.5525    0.1759 C   0  0  0  0  0  0  0  0  0  0  0  0
  -14.1808   -1.5419    0.1570 H   0  0  0  0  0  0  0  0  0  0  0  0
  -13.3354   -2.0880   -1.2821 H   0  0  0  0  0  0  0  0  0  0  0  0
  -15.0798   -1.8256   -1.3521 H   0  0  0  0  0  0  0  0  0  0  0  0
  -16.0555    0.5043   -1.3662 H   0  0  0  0  0  0  0  0  0  0  0  0
  -15.2635    0.7944    0.1990 H   0  0  0  0  0  0  0  0  0  0  0  0
  -14.9927    1.9092   -1.1299 H   0  0  0  0  0  0  0  0  0  0  0  0
  -13.5000    1.2199   -3.1039 H   0  0  0  0  0  0  0  0  0  0  0  0
  -14.6492   -0.1098   -3.3856 H   0  0  0  0  0  0  0  0  0  0  0  0
  -12.9204   -0.4342   -3.2294 H   0  0  0  0  0  0  0  0  0  0  0  0
  -11.9693    2.2105    0.9766 H   0  0  0  0  0  0  0  0  0  0  0  0
   -9.7657    3.0647    2.2860 H   0  0  0  0  0  0  0  0  0  0  0  0
   -6.9773    2.1189    2.1555 H   0  0  0  0  0  0  0  0  0  0  0  0
   -5.3779    0.0775    3.2620 H   0  0  0  0  0  0  0  0  0  0  0  0
   -2.9748   -0.0193    3.7709 H   0  0  0  0  0  0  0  0  0  0  0  0
   -0.6456    0.4681    4.1220 H   0  0  0  0  0  0  0  0  0  0  0  0
    3.7265   -0.2420    3.3129 H   0  0  0  0  0  0  0  0  0  0  0  0
    6.0392   -0.5872    2.5178 H   0  0  0  0  0  0  0  0  0  0  0  0
    7.7821    0.8415    1.1128 H   0  0  0  0  0  0  0  0  0  0  0  0
   10.0517    0.4970    0.2980 H   0  0  0  0  0  0  0  0  0  0  0  0
    8.4221   -3.5398   -3.0794 H   0  0  0  0  0  0  0  0  0  0  0  0
   11.0798   -3.0374   -3.1991 H   0  0  0  0  0  0  0  0  0  0  0  0
   14.8368    1.8070   -1.3291 H   0  0  0  0  0  0  0  0  0  0  0  0
   13.2038    1.8843   -2.0301 H   0  0  0  0  0  0  0  0  0  0  0  0
   14.2442    0.5107   -2.3697 H   0  0  0  0  0  0  0  0  0  0  0  0
   13.9790    2.0882    1.0348 H   0  0  0  0  0  0  0  0  0  0  0  0
   12.3449    2.2820    0.3648 H   0  0  0  0  0  0  0  0  0  0  0  0
   12.6345    1.0790    1.6101 H   0  0  0  0  0  0  0  0  0  0  0  0
   14.6691   -1.2607   -0.5330 H   0  0  0  0  0  0  0  0  0  0  0  0
   13.9010   -1.0872    1.0372 H   0  0  0  0  0  0  0  0  0  0  0  0
   15.2697   -0.0414    0.5926 H   0  0  0  0  0  0  0  0  0  0  0  0
    6.3265   -2.3076   -1.4448 H   0  0  0  0  0  0  0  0  0  0  0  0
    4.5390   -0.3224   -1.5054 H   0  0  0  0  0  0  0  0  0  0  0  0
   -4.3459    0.7730   -0.8527 H   0  0  0  0  0  0  0  0  0  0  0  0
   -6.4290   -1.1358   -0.6201 H   0  0  0  0  0  0  0  0  0  0  0  0
   -8.8103   -1.0899   -1.1894 H   0  0  0  0  0  0  0  0  0  0  0  0
  1  2  1  0
  2  3  1  0
  2  4  1  0
  2  5  1  0
  5  6  1  0
  6  7  2  0
  6  8  1  0
  8  9  1  0
  9 10  2  0
 10 11  1  0
 11 12  2  0
 12 13  1  0
 13 14  1  0
 14 15  2  0
 15 16  1  0
 16 17  2  0
 17 18  1  0
 18 19  2  0
 19 20  1  0
 20 21  2  0
 21 22  1  0
 22 23  2  0
 23 24  1  0
 24 25  2  0
 25 26  1  0
 26 27  2  0
 27 28  1  0
 28 29  2  0
 29 30  1  0
 30 31  1  0
 31 32  2  0
 32 33  1  0
 33 34  1  0
 34 35  2  0
 34 36  1  0
 36 37  1  0
 37 38  1  0
 37 39  1  0
 37 40  1  0
 30 41  2  0
 25 42  1  0
 42 43  2  0
 21 44  1  0
 17 45  1  0
 45 46  2  0
 13 47  2  0
 47 48  1  0
 48 49  2  0
 49  8  1  0
 49 11  1  0
 46 14  1  0
 44 18  1  0
 43 22  1  0
 41 26  1  0
 33 29  1  0
  1 50  1  0
  1 51  1  0
  1 52  1  0
  3 53  1  0
  3 54  1  0
  3 55  1  0
  4 56  1  0
  4 57  1  0
  4 58  1  0
  9 59  1  0
 10 60  1  0
 12 61  1  0
 15 62  1  0
 16 63  1  0
 19 64  1  0
 23 65  1  0
 24 66  1  0
 27 67  1  0
 28 68  1  0
 31 69  1  0
 32 70  1  0
 38 71  1  0
 38 72  1  0
 38 73  1  0
 39 74  1  0
 39 75  1  0
 39 76  1  0
 40 77  1  0
 40 78  1  0
 40 79  1  0
 41 80  1  0
 42 81  1  0
 46 82  1  0
 47 83  1  0
 48 84  1  0
M  END
$$$$
