
     RDKit          3D

 85 91  0  0  0  0  0  0  0  0999 V2000
  -11.7799   -2.7052   -0.8785 C   0  0  0  0  0  0  0  0  0  0  0  0
  -12.3003   -1.2667   -0.7787 C   0  0  0  0  0  0  0  0  0  0  0  0
  -13.5818   -1.2639    0.0683 C   0  0  0  0  0  0  0  0  0  0  0  0
  -12.6226   -0.6794   -2.1572 C   0  0  0  0  0  0  0  0  0  0  0  0
  -11.3735   -0.4235   -0.0490 O   0  0  0  0  0  0  0  0  0  0  0  0
  -10.1213   -0.2094   -0.5270 C   0  0  0  0  0  0  0  0  0  0  0  0
   -9.6257   -0.6401   -1.5561 O   0  0  0  0  0  0  0  0  0  0  0  0
   -9.3998    0.6188    0.3624 N   0  0  0  0  0  0  0  0  0  0  0  0
   -9.8740    1.1386    1.5618 C   0  0  0  0  0  0  0  0  0  0  0  0
   -8.8870    1.8810    2.1611 C   0  0  0  0  0  0  0  0  0  0  0  0
   -7.7521    1.8424    1.3162 C   0  0  0  0  0  0  0  0  0  0  0  0
   -6.4629    2.4097    1.4063 C   0  0  0  0  0  0  0  0  0  0  0  0
   -5.5097    2.2008    0.3938 C   0  0  0  0  0  0  0  0  0  0  0  0
   -4.1657    2.7956    0.4934 C   0  0  0  0  0  0  0  0  0  0  0  0
   -4.0024    4.1743    0.6931 C   0  0  0  0  0  0  0  0  0  0  0  0
   -2.7314    4.7367    0.7948 C   0  0  0  0  0  0  0  0  0  0  0  0
   -1.6012    3.9258    0.6953 C   0  0  0  0  0  0  0  0  0  0  0  0
   -1.7166    2.5418    0.4879 C   0  0  0  0  0  0  0  0  0  0  0  0
   -0.4862    1.7357    0.3884 C   0  0  0  0  0  0  0  0  0  0  0  0
    0.7126    2.1640    0.7334 N   0  0  0  0  0  0  0  0  0  0  0  0
    1.6992    1.2267    0.5171 N   0  0  0  0  0  0  0  0  0  0  0  0
    1.2372    0.1035    0.0003 C   0  0  0  0  0  0  0  0  0  0  0  0
    2.0767   -1.0607   -0.3441 C   0  0  0  0  0  0  0  0  0  0  0  0
    1.5781   -2.2204   -0.9559 C   0  0  0  0  0  0  0  0  0  0  0  0
    2.4251   -3.2865   -1.2672 C   0  0  0  0  0  0  0  0  0  0  0  0
    3.7862   -3.2113   -0.9731 C   0  0  0  0  0  0  0  0  0  0  0  0
    4.3284   -2.0730   -0.3606 C   0  0  0  0  0  0  0  0  0  0  0  0
    5.7668   -1.9891   -0.0490 C   0  0  0  0  0  0  0  0  0  0  0  0
    6.5293   -0.8867   -0.4488 C   0  0  0  0  0  0  0  0  0  0  0  0
    7.8981   -0.7826   -0.1622 C   0  0  0  0  0  0  0  0  0  0  0  0
    8.5271   -1.8211    0.5497 C   0  0  0  0  0  0  0  0  0  0  0  0
    7.7903   -2.9401    0.9615 C   0  0  0  0  0  0  0  0  0  0  0  0
    8.6703   -3.8094    1.6481 C   0  0  0  0  0  0  0  0  0  0  0  0
    9.9083   -3.2219    1.6476 C   0  0  0  0  0  0  0  0  0  0  0  0
    9.8502   -2.0012    0.9831 N   0  0  0  0  0  0  0  0  0  0  0  0
   10.9788   -1.1635    0.8296 C   0  0  0  0  0  0  0  0  0  0  0  0
   12.0627   -1.4925    1.2870 O   0  0  0  0  0  0  0  0  0  0  0  0
   10.6715   -0.0369    0.1492 O   0  0  0  0  0  0  0  0  0  0  0  0
   11.6880    0.9646   -0.1109 C   0  0  0  0  0  0  0  0  0  0  0  0
   12.2325    1.5564    1.1938 C   0  0  0  0  0  0  0  0  0  0  0  0
   10.9582    2.0716   -0.8863 C   0  0  0  0  0  0  0  0  0  0  0  0
   12.8068    0.4028   -0.9947 C   0  0  0  0  0  0  0  0  0  0  0  0
    6.4129   -3.0166    0.6599 C   0  0  0  0  0  0  0  0  0  0  0  0
    3.4553   -1.0117   -0.0547 C   0  0  0  0  0  0  0  0  0  0  0  0
   -0.4674    0.1336   -0.2375 S   0  0  0  0  0  0  0  0  0  0  0  0
   -3.0099    1.9952    0.3946 C   0  0  0  0  0  0  0  0  0  0  0  0
   -5.8725    1.4170   -0.7075 C   0  0  0  0  0  0  0  0  0  0  0  0
   -7.1445    0.8404   -0.8224 C   0  0  0  0  0  0  0  0  0  0  0  0
   -8.0798    1.0612    0.2041 C   0  0  0  0  0  0  0  0  0  0  0  0
  -11.4667   -3.0749    0.1046 H   0  0  0  0  0  0  0  0  0  0  0  0
  -12.5452   -3.3796   -1.2786 H   0  0  0  0  0  0  0  0  0  0  0  0
  -10.9071   -2.7767   -1.5330 H   0  0  0  0  0  0  0  0  0  0  0  0
  -14.3651   -1.8870   -0.3772 H   0  0  0  0  0  0  0  0  0  0  0  0
  -13.3813   -1.6292    1.0829 H   0  0  0  0  0  0  0  0  0  0  0  0
  -13.9726   -0.2448    0.1784 H   0  0  0  0  0  0  0  0  0  0  0  0
  -11.7591   -0.7132   -2.8282 H   0  0  0  0  0  0  0  0  0  0  0  0
  -12.9118    0.3742   -2.0732 H   0  0  0  0  0  0  0  0  0  0  0  0
  -13.4370   -1.2280   -2.6428 H   0  0  0  0  0  0  0  0  0  0  0  0
  -10.8836    0.9267    1.8890 H   0  0  0  0  0  0  0  0  0  0  0  0
   -8.9727    2.3985    3.1079 H   0  0  0  0  0  0  0  0  0  0  0  0
   -6.2092    3.0062    2.2795 H   0  0  0  0  0  0  0  0  0  0  0  0
   -4.8727    4.8246    0.7623 H   0  0  0  0  0  0  0  0  0  0  0  0
   -2.6196    5.8068    0.9499 H   0  0  0  0  0  0  0  0  0  0  0  0
   -0.6171    4.3865    0.7786 H   0  0  0  0  0  0  0  0  0  0  0  0
    0.5257   -2.3221   -1.2079 H   0  0  0  0  0  0  0  0  0  0  0  0
    2.0242   -4.1768   -1.7464 H   0  0  0  0  0  0  0  0  0  0  0  0
    4.4292   -4.0487   -1.2385 H   0  0  0  0  0  0  0  0  0  0  0  0
    6.0608   -0.0779   -1.0087 H   0  0  0  0  0  0  0  0  0  0  0  0
    8.4356    0.0978   -0.4977 H   0  0  0  0  0  0  0  0  0  0  0  0
    8.4224   -4.7627    2.0973 H   0  0  0  0  0  0  0  0  0  0  0  0
   10.8482   -3.5579    2.0676 H   0  0  0  0  0  0  0  0  0  0  0  0
   12.8248    0.8276    1.7559 H   0  0  0  0  0  0  0  0  0  0  0  0
   12.8752    2.4229    1.0013 H   0  0  0  0  0  0  0  0  0  0  0  0
   11.4132    1.8687    1.8520 H   0  0  0  0  0  0  0  0  0  0  0  0
   10.1247    2.4747   -0.2989 H   0  0  0  0  0  0  0  0  0  0  0  0
   10.5213    1.6762   -1.8110 H   0  0  0  0  0  0  0  0  0  0  0  0
   11.6289    2.8975   -1.1458 H   0  0  0  0  0  0  0  0  0  0  0  0
   13.4060   -0.3457   -0.4676 H   0  0  0  0  0  0  0  0  0  0  0  0
   13.4878    1.1944   -1.3260 H   0  0  0  0  0  0  0  0  0  0  0  0
   12.3908   -0.0927   -1.8794 H   0  0  0  0  0  0  0  0  0  0  0  0
    5.8492   -3.8826    0.9990 H   0  0  0  0  0  0  0  0  0  0  0  0
    3.8601   -0.1236    0.4329 H   0  0  0  0  0  0  0  0  0  0  0  0
   -3.1433    0.9234    0.2616 H   0  0  0  0  0  0  0  0  0  0  0  0
   -5.1601    1.2510   -1.5143 H   0  0  0  0  0  0  0  0  0  0  0  0
   -7.3862    0.2415   -1.6962 H   0  0  0  0  0  0  0  0  0  0  0  0
  1  2  1  0
  2  3  1  0
  2  4  1  0
  2  5  1  0
  5  6  1  0
  6  7  2  0
  6  8  1  0
  8  9  1  0
  9 10  2  0
 10 11  1  0
 11 12  2  0
 12 13  1  0
 13 14  1  0
 14 15  2  0
 15 16  1  0
 16 17  2  0
 17 18  1  0
 18 19  1  0
 19 20  2  0
 20 21  1  0
 21 22  2  0
 22 23  1  0
 23 24  2  0
 24 25  1  0
 25 26  2  0
 26 27  1  0
 27 28  1  0
 28 29  2  0
 29 30  1  0
 30 31  2  0
 31 32  1  0
 32 33  1  0
 33 34  2  0
 34 35  1  0
 35 36  1  0
 36 37  2  0
 36 38  1  0
 38 39  1  0
 39 40  1  0
 39 41  1  0
 39 42  1  0
 32 43  2  0
 27 44  2  0
 22 45  1  0
 18 46  2  0
 13 47  2  0
 47 48  1  0
 48 49  2  0
 49  8  1  0
 49 11  1  0
 46 14  1  0
 45 19  1  0
 44 23  1  0
 43 28  1  0
 35 31  1  0
  1 50  1  0
  1 51  1  0
  1 52  1  0
  3 53  1  0
  3 54  1  0
  3 55  1  0
  4 56  1  0
  4 57  1  0
  4 58  1  0
  9 59  1  0
 10 60  1  0
 12 61  1  0
 15 62  1  0
 16 63  1  0
 17 64  1  0
 24 65  1  0
 25 66  1  0
 26 67  1  0
 29 68  1  0
 30 69  1  0
 33 70  1  0
 34 71  1  0
 40 72  1  0
 40 73  1  0
 40 74  1  0
 41 75  1  0
 41 76  1  0
 41 77  1  0
 42 78  1  0
 42 79  1  0
 42 80  1  0
 43 81  1  0
 44 82  1  0
 46 83  1  0
 47 84  1  0
 48 85  1  0
M  END
$$$$
