
     RDKit          3D

 90 96  0  0  0  0  0  0  0  0999 V2000
    1.2217   -3.4814    3.1236 C   0  0  0  0  0  0  0  0  0  0  0  0
    0.5171   -2.4677    2.2813 C   0  0  0  0  0  0  0  0  0  0  0  0
   -0.9121   -2.3535    2.2163 C   0  0  0  0  0  0  0  0  0  0  0  0
   -1.3530   -1.3395    1.3865 C   0  0  0  0  0  0  0  0  0  0  0  0
   -2.7371   -0.9236    1.0987 C   0  0  0  0  0  0  0  0  0  0  0  0
   -3.7169   -1.0110    2.0983 C   0  0  0  0  0  0  0  0  0  0  0  0
   -5.0433   -0.6397    1.8441 C   0  0  0  0  0  0  0  0  0  0  0  0
   -5.4295   -0.1696    0.5816 C   0  0  0  0  0  0  0  0  0  0  0  0
   -6.8204    0.2152    0.3141 C   0  0  0  0  0  0  0  0  0  0  0  0
   -7.8425   -0.7396    0.3274 C   0  0  0  0  0  0  0  0  0  0  0  0
   -9.1766   -0.3983    0.0705 C   0  0  0  0  0  0  0  0  0  0  0  0
   -9.4888    0.9458   -0.2028 C   0  0  0  0  0  0  0  0  0  0  0  0
   -8.4900    1.9245   -0.2190 C   0  0  0  0  0  0  0  0  0  0  0  0
   -9.1119    3.1628   -0.5093 C   0  0  0  0  0  0  0  0  0  0  0  0
  -10.4561    2.9268   -0.6616 C   0  0  0  0  0  0  0  0  0  0  0  0
  -10.7105    1.5712   -0.4850 N   0  0  0  0  0  0  0  0  0  0  0  0
  -11.9752    0.9466   -0.5724 C   0  0  0  0  0  0  0  0  0  0  0  0
  -12.1125   -0.2587   -0.4367 O   0  0  0  0  0  0  0  0  0  0  0  0
  -12.9353    1.8756   -0.8126 O   0  0  0  0  0  0  0  0  0  0  0  0
  -14.3235    1.4769   -0.9388 C   0  0  0  0  0  0  0  0  0  0  0  0
  -15.0877    2.7898   -1.1639 C   0  0  0  0  0  0  0  0  0  0  0  0
  -14.5247    0.5722   -2.1586 C   0  0  0  0  0  0  0  0  0  0  0  0
  -14.8411    0.8230    0.3472 C   0  0  0  0  0  0  0  0  0  0  0  0
   -7.1525    1.5523    0.0361 C   0  0  0  0  0  0  0  0  0  0  0  0
   -4.4524   -0.0803   -0.4189 C   0  0  0  0  0  0  0  0  0  0  0  0
   -3.1263   -0.4546   -0.1640 C   0  0  0  0  0  0  0  0  0  0  0  0
   -0.0203   -0.5189    0.6907 S   0  0  0  0  0  0  0  0  0  0  0  0
    1.1295   -1.5203    1.4735 C   0  0  0  0  0  0  0  0  0  0  0  0
    2.5582   -1.3002    1.2135 C   0  0  0  0  0  0  0  0  0  0  0  0
    3.1554   -0.0543    1.4505 C   0  0  0  0  0  0  0  0  0  0  0  0
    4.5205    0.1392    1.2092 C   0  0  0  0  0  0  0  0  0  0  0  0
    5.3225   -0.9077    0.7326 C   0  0  0  0  0  0  0  0  0  0  0  0
    6.7556   -0.7100    0.4861 C   0  0  0  0  0  0  0  0  0  0  0  0
    7.1985    0.1299   -0.5414 C   0  0  0  0  0  0  0  0  0  0  0  0
    8.5621    0.3257   -0.7982 C   0  0  0  0  0  0  0  0  0  0  0  0
    9.5025   -0.3385    0.0110 C   0  0  0  0  0  0  0  0  0  0  0  0
    9.0901   -1.1754    1.0536 C   0  0  0  0  0  0  0  0  0  0  0  0
   10.2523   -1.6745    1.6884 C   0  0  0  0  0  0  0  0  0  0  0  0
   11.3375   -1.1505    1.0324 C   0  0  0  0  0  0  0  0  0  0  0  0
   10.9033   -0.3363   -0.0081 N   0  0  0  0  0  0  0  0  0  0  0  0
   11.7315    0.3599   -0.9175 C   0  0  0  0  0  0  0  0  0  0  0  0
   11.2701    1.0262   -1.8309 O   0  0  0  0  0  0  0  0  0  0  0  0
   13.0377    0.1582   -0.6056 O   0  0  0  0  0  0  0  0  0  0  0  0
   14.0844    0.7524   -1.4149 C   0  0  0  0  0  0  0  0  0  0  0  0
   13.9977    2.2833   -1.4168 C   0  0  0  0  0  0  0  0  0  0  0  0
   14.0702    0.1774   -2.8359 C   0  0  0  0  0  0  0  0  0  0  0  0
   15.3931    0.3332   -0.7268 C   0  0  0  0  0  0  0  0  0  0  0  0
    7.7109   -1.3634    1.2840 C   0  0  0  0  0  0  0  0  0  0  0  0
    4.7211   -2.1522    0.4978 C   0  0  0  0  0  0  0  0  0  0  0  0
    3.3554   -2.3453    0.7301 C   0  0  0  0  0  0  0  0  0  0  0  0
    0.5405   -3.9214    3.8590 H   0  0  0  0  0  0  0  0  0  0  0  0
    2.0527   -3.0264    3.6718 H   0  0  0  0  0  0  0  0  0  0  0  0
    1.6116   -4.2913    2.5008 H   0  0  0  0  0  0  0  0  0  0  0  0
   -1.5874   -3.0034    2.7607 H   0  0  0  0  0  0  0  0  0  0  0  0
   -3.4583   -1.3572    3.0966 H   0  0  0  0  0  0  0  0  0  0  0  0
   -5.7766   -0.7072    2.6479 H   0  0  0  0  0  0  0  0  0  0  0  0
   -7.6053   -1.7831    0.5311 H   0  0  0  0  0  0  0  0  0  0  0  0
   -9.9411   -1.1705    0.0849 H   0  0  0  0  0  0  0  0  0  0  0  0
   -8.6273    4.1271   -0.5941 H   0  0  0  0  0  0  0  0  0  0  0  0
  -11.2642    3.6109   -0.8871 H   0  0  0  0  0  0  0  0  0  0  0  0
  -14.7179    3.3097   -2.0563 H   0  0  0  0  0  0  0  0  0  0  0  0
  -14.9343    3.4750   -0.3212 H   0  0  0  0  0  0  0  0  0  0  0  0
  -16.1632    2.6202   -1.2807 H   0  0  0  0  0  0  0  0  0  0  0  0
  -14.0854    1.0250   -3.0544 H   0  0  0  0  0  0  0  0  0  0  0  0
  -15.5860    0.3882   -2.3528 H   0  0  0  0  0  0  0  0  0  0  0  0
  -14.0418   -0.4016   -2.0296 H   0  0  0  0  0  0  0  0  0  0  0  0
  -14.3890   -0.1605    0.5151 H   0  0  0  0  0  0  0  0  0  0  0  0
  -14.5957    1.4380    1.2209 H   0  0  0  0  0  0  0  0  0  0  0  0
  -15.9281    0.6856    0.3155 H   0  0  0  0  0  0  0  0  0  0  0  0
   -6.3771    2.3152    0.0287 H   0  0  0  0  0  0  0  0  0  0  0  0
   -4.7193    0.2687   -1.4158 H   0  0  0  0  0  0  0  0  0  0  0  0
   -2.4085   -0.3865   -0.9771 H   0  0  0  0  0  0  0  0  0  0  0  0
    2.5646    0.7766    1.8320 H   0  0  0  0  0  0  0  0  0  0  0  0
    4.9602    1.1158    1.4068 H   0  0  0  0  0  0  0  0  0  0  0  0
    6.4711    0.6439   -1.1710 H   0  0  0  0  0  0  0  0  0  0  0  0
    8.8687    0.9812   -1.6093 H   0  0  0  0  0  0  0  0  0  0  0  0
   10.2893   -2.3424    2.5385 H   0  0  0  0  0  0  0  0  0  0  0  0
   12.3954   -1.2903    1.2117 H   0  0  0  0  0  0  0  0  0  0  0  0
   13.1120    2.6442   -1.9492 H   0  0  0  0  0  0  0  0  0  0  0  0
   14.8743    2.7302   -1.8997 H   0  0  0  0  0  0  0  0  0  0  0  0
   13.9288    2.6695   -0.3929 H   0  0  0  0  0  0  0  0  0  0  0  0
   14.9308    0.5277   -3.4168 H   0  0  0  0  0  0  0  0  0  0  0  0
   13.1669    0.4613   -3.3830 H   0  0  0  0  0  0  0  0  0  0  0  0
   14.0905   -0.9189   -2.8113 H   0  0  0  0  0  0  0  0  0  0  0  0
   16.2718    0.7170   -1.2554 H   0  0  0  0  0  0  0  0  0  0  0  0
   15.4727   -0.7601   -0.6740 H   0  0  0  0  0  0  0  0  0  0  0  0
   15.4232    0.6977    0.3080 H   0  0  0  0  0  0  0  0  0  0  0  0
    7.3891   -2.0116    2.0959 H   0  0  0  0  0  0  0  0  0  0  0  0
    5.3151   -2.9800    0.1151 H   0  0  0  0  0  0  0  0  0  0  0  0
    2.9187   -3.3200    0.5197 H   0  0  0  0  0  0  0  0  0  0  0  0
  1  2  1  0
  2  3  1  0
  3  4  2  0
  4  5  1  0
  5  6  2  0
  6  7  1  0
  7  8  2  0
  8  9  1  0
  9 10  2  0
 10 11  1  0
 11 12  2  0
 12 13  1  0
 13 14  1  0
 14 15  2  0
 15 16  1  0
 16 17  1  0
 17 18  2  0
 17 19  1  0
 19 20  1  0
 20 21  1  0
 20 22  1  0
 20 23  1  0
 13 24  2  0
  8 25  1  0
 25 26  2  0
  4 27  1  0
 27 28  1  0
 28 29  1  0
 29 30  2  0
 30 31  1  0
 31 32  2  0
 32 33  1  0
 33 34  2  0
 34 35  1  0
 35 36  2  0
 36 37  1  0
 37 38  1  0
 38 39  2  0
 39 40  1  0
 40 41  1  0
 41 42  2  0
 41 43  1  0
 43 44  1  0
 44 45  1  0
 44 46  1  0
 44 47  1  0
 37 48  2  0
 32 49  1  0
 49 50  2  0
 28  2  2  0
 50 29  1  0
 26  5  1  0
 48 33  1  0
 24  9  1  0
 40 36  1  0
 16 12  1  0
  1 51  1  0
  1 52  1  0
  1 53  1  0
  3 54  1  0
  6 55  1  0
  7 56  1  0
 10 57  1  0
 11 58  1  0
 14 59  1  0
 15 60  1  0
 21 61  1  0
 21 62  1  0
 21 63  1  0
 22 64  1  0
 22 65  1  0
 22 66  1  0
 23 67  1  0
 23 68  1  0
 23 69  1  0
 24 70  1  0
 25 71  1  0
 26 72  1  0
 30 73  1  0
 31 74  1  0
 34 75  1  0
 35 76  1  0
 38 77  1  0
 39 78  1  0
 45 79  1  0
 45 80  1  0
 45 81  1  0
 46 82  1  0
 46 83  1  0
 46 84  1  0
 47 85  1  0
 47 86  1  0
 47 87  1  0
 48 88  1  0
 49 89  1  0
 50 90  1  0
M  END
$$$$
