
     RDKit          3D

 85 91  0  0  0  0  0  0  0  0999 V2000
   13.6422   -2.5405   -1.3052 C   0  0  0  0  0  0  0  0  0  0  0  0
   12.9410   -2.2849    0.0332 C   0  0  0  0  0  0  0  0  0  0  0  0
   13.9430   -2.0733    1.1732 C   0  0  0  0  0  0  0  0  0  0  0  0
   12.0643   -3.5006    0.3695 C   0  0  0  0  0  0  0  0  0  0  0  0
   12.0123   -1.1754   -0.0646 O   0  0  0  0  0  0  0  0  0  0  0  0
   12.4598    0.0682   -0.3493 C   0  0  0  0  0  0  0  0  0  0  0  0
   13.6106    0.4249   -0.5524 O   0  0  0  0  0  0  0  0  0  0  0  0
   11.3996    1.0026   -0.3936 N   0  0  0  0  0  0  0  0  0  0  0  0
   11.6028    2.3538   -0.6536 C   0  0  0  0  0  0  0  0  0  0  0  0
   10.4038    3.0168   -0.6236 C   0  0  0  0  0  0  0  0  0  0  0  0
    9.3996    2.0614   -0.3401 C   0  0  0  0  0  0  0  0  0  0  0  0
    7.9995    2.1623   -0.1893 C   0  0  0  0  0  0  0  0  0  0  0  0
    7.2185    1.0287    0.0917 C   0  0  0  0  0  0  0  0  0  0  0  0
    5.7607    1.1407    0.2550 C   0  0  0  0  0  0  0  0  0  0  0  0
    5.2050    2.0184    1.1946 C   0  0  0  0  0  0  0  0  0  0  0  0
    3.8173    2.1236    1.3513 C   0  0  0  0  0  0  0  0  0  0  0  0
    2.9328    1.3575    0.5748 C   0  0  0  0  0  0  0  0  0  0  0  0
    1.4814    1.5141    0.7878 C   0  0  0  0  0  0  0  0  0  0  0  0
    0.9449    2.3445    1.6618 N   0  0  0  0  0  0  0  0  0  0  0  0
   -0.4315    2.3005    1.6690 N   0  0  0  0  0  0  0  0  0  0  0  0
   -0.9231    1.4354    0.8027 C   0  0  0  0  0  0  0  0  0  0  0  0
   -2.3636    1.1847    0.6070 C   0  0  0  0  0  0  0  0  0  0  0  0
   -2.8729    0.2268   -0.2823 C   0  0  0  0  0  0  0  0  0  0  0  0
   -4.2549    0.0275   -0.4174 C   0  0  0  0  0  0  0  0  0  0  0  0
   -5.1748    0.7779    0.3283 C   0  0  0  0  0  0  0  0  0  0  0  0
   -6.6240    0.5616    0.1926 C   0  0  0  0  0  0  0  0  0  0  0  0
   -7.1831   -0.7067    0.3880 C   0  0  0  0  0  0  0  0  0  0  0  0
   -8.5610   -0.9359    0.2784 C   0  0  0  0  0  0  0  0  0  0  0  0
   -9.4010    0.1463   -0.0393 C   0  0  0  0  0  0  0  0  0  0  0  0
   -8.8749    1.4253   -0.2459 C   0  0  0  0  0  0  0  0  0  0  0  0
   -9.9550    2.2874   -0.5504 C   0  0  0  0  0  0  0  0  0  0  0  0
  -11.1043    1.5372   -0.5204 C   0  0  0  0  0  0  0  0  0  0  0  0
  -10.7902    0.2198   -0.2047 N   0  0  0  0  0  0  0  0  0  0  0  0
  -11.7105   -0.8449   -0.0737 C   0  0  0  0  0  0  0  0  0  0  0  0
  -11.3538   -1.9779    0.2057 O   0  0  0  0  0  0  0  0  0  0  0  0
  -12.9718   -0.3980   -0.2993 O   0  0  0  0  0  0  0  0  0  0  0  0
  -14.0973   -1.3080   -0.2157 C   0  0  0  0  0  0  0  0  0  0  0  0
  -14.2473   -1.8771    1.1993 C   0  0  0  0  0  0  0  0  0  0  0  0
  -13.9956   -2.4156   -1.2698 C   0  0  0  0  0  0  0  0  0  0  0  0
  -15.3252   -0.4406   -0.5301 C   0  0  0  0  0  0  0  0  0  0  0  0
   -7.4830    1.6281   -0.1281 C   0  0  0  0  0  0  0  0  0  0  0  0
   -4.6680    1.7379    1.2137 C   0  0  0  0  0  0  0  0  0  0  0  0
   -3.2884    1.9359    1.3508 C   0  0  0  0  0  0  0  0  0  0  0  0
    0.3018    0.6180   -0.0882 S   0  0  0  0  0  0  0  0  0  0  0  0
    3.4911    0.4801   -0.3667 C   0  0  0  0  0  0  0  0  0  0  0  0
    4.8813    0.3737   -0.5219 C   0  0  0  0  0  0  0  0  0  0  0  0
    7.8649   -0.2046    0.2165 C   0  0  0  0  0  0  0  0  0  0  0  0
    9.2536   -0.3344    0.0743 C   0  0  0  0  0  0  0  0  0  0  0  0
   10.0214    0.8126   -0.2042 C   0  0  0  0  0  0  0  0  0  0  0  0
   12.9126   -2.6051   -2.1201 H   0  0  0  0  0  0  0  0  0  0  0  0
   14.2209   -3.4702   -1.2808 H   0  0  0  0  0  0  0  0  0  0  0  0
   14.3322   -1.7324   -1.5657 H   0  0  0  0  0  0  0  0  0  0  0  0
   13.4254   -1.8054    2.1009 H   0  0  0  0  0  0  0  0  0  0  0  0
   14.5373   -2.9756    1.3540 H   0  0  0  0  0  0  0  0  0  0  0  0
   14.6414   -1.2591    0.9575 H   0  0  0  0  0  0  0  0  0  0  0  0
   12.6576   -4.4156    0.4692 H   0  0  0  0  0  0  0  0  0  0  0  0
   11.3073   -3.6616   -0.4067 H   0  0  0  0  0  0  0  0  0  0  0  0
   11.5170   -3.3388    1.3055 H   0  0  0  0  0  0  0  0  0  0  0  0
   12.6062    2.7192   -0.8355 H   0  0  0  0  0  0  0  0  0  0  0  0
   10.2637    4.0775   -0.7882 H   0  0  0  0  0  0  0  0  0  0  0  0
    7.5262    3.1350   -0.3035 H   0  0  0  0  0  0  0  0  0  0  0  0
    5.8511    2.6254    1.8265 H   0  0  0  0  0  0  0  0  0  0  0  0
    3.4305    2.8172    2.0975 H   0  0  0  0  0  0  0  0  0  0  0  0
   -2.2158   -0.3897   -0.8903 H   0  0  0  0  0  0  0  0  0  0  0  0
   -4.6104   -0.7209   -1.1237 H   0  0  0  0  0  0  0  0  0  0  0  0
   -6.5422   -1.5477    0.6498 H   0  0  0  0  0  0  0  0  0  0  0  0
   -8.9544   -1.9350    0.4455 H   0  0  0  0  0  0  0  0  0  0  0  0
   -9.8974    3.3464   -0.7670 H   0  0  0  0  0  0  0  0  0  0  0  0
  -12.1317    1.8285   -0.6960 H   0  0  0  0  0  0  0  0  0  0  0  0
  -14.2307   -1.0740    1.9448 H   0  0  0  0  0  0  0  0  0  0  0  0
  -15.1848   -2.4330    1.3074 H   0  0  0  0  0  0  0  0  0  0  0  0
  -13.4303   -2.5592    1.4540 H   0  0  0  0  0  0  0  0  0  0  0  0
  -13.8003   -1.9919   -2.2613 H   0  0  0  0  0  0  0  0  0  0  0  0
  -13.1751   -3.1074   -1.0572 H   0  0  0  0  0  0  0  0  0  0  0  0
  -14.9173   -3.0054   -1.3182 H   0  0  0  0  0  0  0  0  0  0  0  0
  -15.2363    0.0150   -1.5232 H   0  0  0  0  0  0  0  0  0  0  0  0
  -15.4100    0.3878    0.1830 H   0  0  0  0  0  0  0  0  0  0  0  0
  -16.2530   -1.0214   -0.4979 H   0  0  0  0  0  0  0  0  0  0  0  0
   -7.0776    2.6232   -0.2965 H   0  0  0  0  0  0  0  0  0  0  0  0
   -5.3460    2.3350    1.8212 H   0  0  0  0  0  0  0  0  0  0  0  0
   -2.9400    2.6894    2.0568 H   0  0  0  0  0  0  0  0  0  0  0  0
    2.8662   -0.1400   -1.0044 H   0  0  0  0  0  0  0  0  0  0  0  0
    5.2742   -0.3116   -1.2713 H   0  0  0  0  0  0  0  0  0  0  0  0
    7.2852   -1.0981    0.4454 H   0  0  0  0  0  0  0  0  0  0  0  0
    9.7001   -1.3165    0.1874 H   0  0  0  0  0  0  0  0  0  0  0  0
  1  2  1  0
  2  3  1  0
  2  4  1  0
  2  5  1  0
  5  6  1  0
  6  7  2  0
  6  8  1  0
  8  9  1  0
  9 10  2  0
 10 11  1  0
 11 12  2  0
 12 13  1  0
 13 14  1  0
 14 15  2  0
 15 16  1  0
 16 17  2  0
 17 18  1  0
 18 19  2  0
 19 20  1  0
 20 21  2  0
 21 22  1  0
 22 23  2  0
 23 24  1  0
 24 25  2  0
 25 26  1  0
 26 27  2  0
 27 28  1  0
 28 29  2  0
 29 30  1  0
 30 31  1  0
 31 32  2  0
 32 33  1  0
 33 34  1  0
 34 35  2  0
 34 36  1  0
 36 37  1  0
 37 38  1  0
 37 39  1  0
 37 40  1  0
 30 41  2  0
 25 42  1  0
 42 43  2  0
 21 44  1  0
 17 45  1  0
 45 46  2  0
 13 47  2  0
 47 48  1  0
 48 49  2  0
 49  8  1  0
 49 11  1  0
 46 14  1  0
 44 18  1  0
 43 22  1  0
 41 26  1  0
 33 29  1  0
  1 50  1  0
  1 51  1  0
  1 52  1  0
  3 53  1  0
  3 54  1  0
  3 55  1  0
  4 56  1  0
  4 57  1  0
  4 58  1  0
  9 59  1  0
 10 60  1  0
 12 61  1  0
 15 62  1  0
 16 63  1  0
 23 64  1  0
 24 65  1  0
 27 66  1  0
 28 67  1  0
 31 68  1  0
 32 69  1  0
 38 70  1  0
 38 71  1  0
 38 72  1  0
 39 73  1  0
 39 74  1  0
 39 75  1  0
 40 76  1  0
 40 77  1  0
 40 78  1  0
 41 79  1  0
 42 80  1  0
 43 81  1  0
 45 82  1  0
 46 83  1  0
 47 84  1  0
 48 85  1  0
M  END
$$$$
