
     RDKit          3D

 51 55  0  0  0  0  0  0  0  0999 V2000
    6.7810   -1.6501    2.6005 C   0  0  0  0  0  0  0  0  0  0  0  0
    6.6307   -1.2334    1.2238 N   0  0  0  0  0  0  0  0  0  0  0  0
    7.5283   -1.5029    0.2245 C   0  0  0  0  0  0  0  0  0  0  0  0
    7.0419   -0.9511   -0.9386 C   0  0  0  0  0  0  0  0  0  0  0  0
    5.8023   -0.3242   -0.6358 C   0  0  0  0  0  0  0  0  0  0  0  0
    4.8588    0.3901   -1.4026 C   0  0  0  0  0  0  0  0  0  0  0  0
    3.6953    0.8919   -0.7972 C   0  0  0  0  0  0  0  0  0  0  0  0
    2.7466    1.6544   -1.6234 C   0  0  0  0  0  0  0  0  0  0  0  0
    1.4107    1.5354   -1.5291 C   0  0  0  0  0  0  0  0  0  0  0  0
    0.4496    2.2508   -2.3171 C   0  0  0  0  0  0  0  0  0  0  0  0
    0.7159    3.1799   -3.3601 C   0  0  0  0  0  0  0  0  0  0  0  0
   -0.5038    3.6018   -3.8179 C   0  0  0  0  0  0  0  0  0  0  0  0
   -1.4977    2.9996   -3.1298 O   0  0  0  0  0  0  0  0  0  0  0  0
   -0.9420    2.1527   -2.1881 C   0  0  0  0  0  0  0  0  0  0  0  0
   -1.7364    1.3702   -1.2960 C   0  0  0  0  0  0  0  0  0  0  0  0
   -3.0772    1.4326   -1.3285 C   0  0  0  0  0  0  0  0  0  0  0  0
   -3.9506    0.6657   -0.4281 C   0  0  0  0  0  0  0  0  0  0  0  0
   -5.0922    1.2862    0.0887 C   0  0  0  0  0  0  0  0  0  0  0  0
   -5.9801    0.6059    0.9313 C   0  0  0  0  0  0  0  0  0  0  0  0
   -5.6984   -0.7335    1.2382 C   0  0  0  0  0  0  0  0  0  0  0  0
   -4.5747   -1.3884    0.7284 C   0  0  0  0  0  0  0  0  0  0  0  0
   -4.6012   -2.7212    1.2243 C   0  0  0  0  0  0  0  0  0  0  0  0
   -5.7194   -2.8521    2.0161 C   0  0  0  0  0  0  0  0  0  0  0  0
   -6.3734   -1.6484    2.0204 N   0  0  0  0  0  0  0  0  0  0  0  0
   -7.5997   -1.3797    2.7376 C   0  0  0  0  0  0  0  0  0  0  0  0
   -3.6959   -0.6807   -0.1182 C   0  0  0  0  0  0  0  0  0  0  0  0
    3.4976    0.7030    0.5747 C   0  0  0  0  0  0  0  0  0  0  0  0
    4.4196   -0.0031    1.3576 C   0  0  0  0  0  0  0  0  0  0  0  0
    5.5648   -0.5108    0.7279 C   0  0  0  0  0  0  0  0  0  0  0  0
    7.7258   -2.1868    2.7205 H   0  0  0  0  0  0  0  0  0  0  0  0
    5.9462   -2.3084    2.8546 H   0  0  0  0  0  0  0  0  0  0  0  0
    6.7792   -0.7601    3.2356 H   0  0  0  0  0  0  0  0  0  0  0  0
    8.4356   -2.0611    0.4149 H   0  0  0  0  0  0  0  0  0  0  0  0
    7.5248   -0.9926   -1.9062 H   0  0  0  0  0  0  0  0  0  0  0  0
    5.0387    0.5366   -2.4638 H   0  0  0  0  0  0  0  0  0  0  0  0
    3.2020    2.3221   -2.3489 H   0  0  0  0  0  0  0  0  0  0  0  0
    1.0178    0.8279   -0.8030 H   0  0  0  0  0  0  0  0  0  0  0  0
    1.6738    3.5062   -3.7383 H   0  0  0  0  0  0  0  0  0  0  0  0
   -0.8182    4.2920   -4.5879 H   0  0  0  0  0  0  0  0  0  0  0  0
   -1.2349    0.7323   -0.5770 H   0  0  0  0  0  0  0  0  0  0  0  0
   -3.5871    2.0916   -2.0281 H   0  0  0  0  0  0  0  0  0  0  0  0
   -5.3038    2.3254   -0.1564 H   0  0  0  0  0  0  0  0  0  0  0  0
   -6.8577    1.1082    1.3251 H   0  0  0  0  0  0  0  0  0  0  0  0
   -3.8796   -3.5007    1.0184 H   0  0  0  0  0  0  0  0  0  0  0  0
   -6.0962   -3.7024    2.5693 H   0  0  0  0  0  0  0  0  0  0  0  0
   -8.3656   -1.0843    2.0157 H   0  0  0  0  0  0  0  0  0  0  0  0
   -7.4123   -0.5757    3.4539 H   0  0  0  0  0  0  0  0  0  0  0  0
   -7.9196   -2.2804    3.2682 H   0  0  0  0  0  0  0  0  0  0  0  0
   -2.8349   -1.1953   -0.5340 H   0  0  0  0  0  0  0  0  0  0  0  0
    2.6188    1.1176    1.0644 H   0  0  0  0  0  0  0  0  0  0  0  0
    4.2469   -0.1397    2.4198 H   0  0  0  0  0  0  0  0  0  0  0  0
  1  2  1  0
  2  3  1  0
  3  4  2  0
  4  5  1  0
  5  6  2  0
  6  7  1  0
  7  8  1  0
  8  9  2  0
  9 10  1  0
 10 11  1  0
 11 12  2  0
 12 13  1  0
 13 14  1  0
 14 15  1  0
 15 16  2  0
 16 17  1  0
 17 18  2  0
 18 19  1  0
 19 20  2  0
 20 21  1  0
 21 22  1  0
 22 23  2  0
 23 24  1  0
 24 25  1  0
 21 26  2  0
  7 27  2  0
 27 28  1  0
 28 29  2  0
 29  2  1  0
 29  5  1  0
 14 10  2  0
 26 17  1  0
 24 20  1  0
  1 30  1  0
  1 31  1  0
  1 32  1  0
  3 33  1  0
  4 34  1  0
  6 35  1  0
  8 36  1  0
  9 37  1  0
 11 38  1  0
 12 39  1  0
 15 40  1  0
 16 41  1  0
 18 42  1  0
 19 43  1  0
 22 44  1  0
 23 45  1  0
 25 46  1  0
 25 47  1  0
 25 48  1  0
 26 49  1  0
 27 50  1  0
 28 51  1  0
M  END
$$$$
