
     RDKit          3D

 73 77  0  0  0  0  0  0  0  0999 V2000
   10.9371   -0.0639   -0.8537 C   0  0  0  0  0  0  0  0  0  0  0  0
    9.8693   -1.0539   -0.3630 C   0  0  0  0  0  0  0  0  0  0  0  0
   10.4219   -1.8093    0.8507 C   0  0  0  0  0  0  0  0  0  0  0  0
    9.5139   -2.0021   -1.5140 C   0  0  0  0  0  0  0  0  0  0  0  0
    8.7397   -0.2237    0.0056 O   0  0  0  0  0  0  0  0  0  0  0  0
    7.5997   -0.7907    0.4778 C   0  0  0  0  0  0  0  0  0  0  0  0
    7.3693   -1.9770    0.6550 O   0  0  0  0  0  0  0  0  0  0  0  0
    6.6448    0.2108    0.7659 N   0  0  0  0  0  0  0  0  0  0  0  0
    6.8359    1.5819    0.6382 C   0  0  0  0  0  0  0  0  0  0  0  0
    5.6920    2.2399    1.0167 C   0  0  0  0  0  0  0  0  0  0  0  0
    4.7397    1.2619    1.3909 C   0  0  0  0  0  0  0  0  0  0  0  0
    3.4078    1.3404    1.8504 C   0  0  0  0  0  0  0  0  0  0  0  0
    2.6893    0.1689    2.1257 C   0  0  0  0  0  0  0  0  0  0  0  0
    1.3145    0.2212    2.6385 C   0  0  0  0  0  0  0  0  0  0  0  0
    0.2231    0.7646    2.0729 C   0  0  0  0  0  0  0  0  0  0  0  0
    0.1718    1.3819    0.7896 C   0  0  0  0  0  0  0  0  0  0  0  0
    1.0464    1.3252   -0.1953 N   0  0  0  0  0  0  0  0  0  0  0  0
    0.6725    2.0573   -1.3013 N   0  0  0  0  0  0  0  0  0  0  0  0
   -0.5098    2.6250   -1.1706 C   0  0  0  0  0  0  0  0  0  0  0  0
   -1.1158    3.4699   -2.1418 C   0  0  0  0  0  0  0  0  0  0  0  0
   -2.3942    3.4298   -2.5528 C   0  0  0  0  0  0  0  0  0  0  0  0
   -3.4477    2.4945   -2.1418 C   0  0  0  0  0  0  0  0  0  0  0  0
   -4.6231    2.9944   -1.5830 C   0  0  0  0  0  0  0  0  0  0  0  0
   -5.6604    2.1406   -1.1914 C   0  0  0  0  0  0  0  0  0  0  0  0
   -5.5020    0.7545   -1.3787 C   0  0  0  0  0  0  0  0  0  0  0  0
   -4.3343    0.2343   -1.9480 C   0  0  0  0  0  0  0  0  0  0  0  0
   -4.4759   -1.1725   -2.0038 C   0  0  0  0  0  0  0  0  0  0  0  0
   -5.7043   -1.4852   -1.4775 C   0  0  0  0  0  0  0  0  0  0  0  0
   -6.3545   -0.3191   -1.0897 N   0  0  0  0  0  0  0  0  0  0  0  0
   -7.6424   -0.2391   -0.5127 C   0  0  0  0  0  0  0  0  0  0  0  0
   -8.1472    0.8281   -0.2016 O   0  0  0  0  0  0  0  0  0  0  0  0
   -8.1714   -1.4825   -0.3836 O   0  0  0  0  0  0  0  0  0  0  0  0
   -9.4991   -1.6586    0.1720 C   0  0  0  0  0  0  0  0  0  0  0  0
  -10.5609   -0.9839   -0.7037 C   0  0  0  0  0  0  0  0  0  0  0  0
   -9.7342   -3.1767    0.1494 C   0  0  0  0  0  0  0  0  0  0  0  0
   -9.5635   -1.1739    1.6243 C   0  0  0  0  0  0  0  0  0  0  0  0
   -3.3036    1.1139   -2.3394 C   0  0  0  0  0  0  0  0  0  0  0  0
   -1.2058    2.3525    0.3872 S   0  0  0  0  0  0  0  0  0  0  0  0
    3.3096   -1.0710    1.9721 C   0  0  0  0  0  0  0  0  0  0  0  0
    4.6323   -1.1737    1.5248 C   0  0  0  0  0  0  0  0  0  0  0  0
    5.3400    0.0076    1.2338 C   0  0  0  0  0  0  0  0  0  0  0  0
   11.1905    0.6575   -0.0675 H   0  0  0  0  0  0  0  0  0  0  0  0
   11.8541   -0.5758   -1.1638 H   0  0  0  0  0  0  0  0  0  0  0  0
   10.5636    0.5230   -1.7019 H   0  0  0  0  0  0  0  0  0  0  0  0
    9.7288   -2.5796    1.2024 H   0  0  0  0  0  0  0  0  0  0  0  0
   11.3707   -2.3045    0.6151 H   0  0  0  0  0  0  0  0  0  0  0  0
   10.5840   -1.1254    1.6922 H   0  0  0  0  0  0  0  0  0  0  0  0
   10.4044   -2.5109   -1.9008 H   0  0  0  0  0  0  0  0  0  0  0  0
    8.8036   -2.7753   -1.2039 H   0  0  0  0  0  0  0  0  0  0  0  0
    9.0418   -1.4536   -2.3376 H   0  0  0  0  0  0  0  0  0  0  0  0
    7.7800    1.9738    0.2838 H   0  0  0  0  0  0  0  0  0  0  0  0
    5.5495    3.3127    1.0160 H   0  0  0  0  0  0  0  0  0  0  0  0
    2.9425    2.3145    1.9723 H   0  0  0  0  0  0  0  0  0  0  0  0
    1.2003   -0.2519    3.6131 H   0  0  0  0  0  0  0  0  0  0  0  0
   -0.7050    0.7163    2.6377 H   0  0  0  0  0  0  0  0  0  0  0  0
   -0.4465    4.1851   -2.6127 H   0  0  0  0  0  0  0  0  0  0  0  0
   -2.7150    4.1519   -3.3025 H   0  0  0  0  0  0  0  0  0  0  0  0
   -4.7471    4.0655   -1.4346 H   0  0  0  0  0  0  0  0  0  0  0  0
   -6.5630    2.5575   -0.7531 H   0  0  0  0  0  0  0  0  0  0  0  0
   -3.7537   -1.8816   -2.3879 H   0  0  0  0  0  0  0  0  0  0  0  0
   -6.1810   -2.4477   -1.3454 H   0  0  0  0  0  0  0  0  0  0  0  0
  -10.4391   -1.2730   -1.7539 H   0  0  0  0  0  0  0  0  0  0  0  0
  -10.4861    0.1073   -0.6690 H   0  0  0  0  0  0  0  0  0  0  0  0
  -11.5738   -1.2527   -0.3826 H   0  0  0  0  0  0  0  0  0  0  0  0
   -8.9742   -3.6976    0.7440 H   0  0  0  0  0  0  0  0  0  0  0  0
  -10.7217   -3.4420    0.5421 H   0  0  0  0  0  0  0  0  0  0  0  0
   -9.6501   -3.5687   -0.8715 H   0  0  0  0  0  0  0  0  0  0  0  0
  -10.5144   -1.4486    2.0935 H   0  0  0  0  0  0  0  0  0  0  0  0
   -9.4660   -0.0866    1.6966 H   0  0  0  0  0  0  0  0  0  0  0  0
   -8.7454   -1.6029    2.2142 H   0  0  0  0  0  0  0  0  0  0  0  0
   -2.4001    0.7114   -2.7909 H   0  0  0  0  0  0  0  0  0  0  0  0
    2.7635   -1.9867    2.1894 H   0  0  0  0  0  0  0  0  0  0  0  0
    5.0846   -2.1541    1.4029 H   0  0  0  0  0  0  0  0  0  0  0  0
  1  2  1  0
  2  3  1  0
  2  4  1  0
  2  5  1  0
  5  6  1  0
  6  7  2  0
  6  8  1  0
  8  9  1  0
  9 10  2  0
 10 11  1  0
 11 12  2  0
 12 13  1  0
 13 14  1  0
 14 15  2  0
 15 16  1  0
 16 17  2  0
 17 18  1  0
 18 19  2  0
 19 20  1  0
 20 21  2  0
 21 22  1  0
 22 23  2  0
 23 24  1  0
 24 25  2  0
 25 26  1  0
 26 27  1  0
 27 28  2  0
 28 29  1  0
 29 30  1  0
 30 31  2  0
 30 32  1  0
 32 33  1  0
 33 34  1  0
 33 35  1  0
 33 36  1  0
 26 37  2  0
 19 38  1  0
 13 39  2  0
 39 40  1  0
 40 41  2  0
 41  8  1  0
 41 11  1  0
 38 16  1  0
 37 22  1  0
 29 25  1  0
  1 42  1  0
  1 43  1  0
  1 44  1  0
  3 45  1  0
  3 46  1  0
  3 47  1  0
  4 48  1  0
  4 49  1  0
  4 50  1  0
  9 51  1  0
 10 52  1  0
 12 53  1  0
 14 54  1  0
 15 55  1  0
 20 56  1  0
 21 57  1  0
 23 58  1  0
 24 59  1  0
 27 60  1  0
 28 61  1  0
 34 62  1  0
 34 63  1  0
 34 64  1  0
 35 65  1  0
 35 66  1  0
 35 67  1  0
 36 68  1  0
 36 69  1  0
 36 70  1  0
 37 71  1  0
 39 72  1  0
 40 73  1  0
M  END
$$$$
