
     RDKit          3D

 51 55  0  0  0  0  0  0  0  0999 V2000
    6.0843    2.8384   -2.3181 C   0  0  0  0  0  0  0  0  0  0  0  0
    4.7443    2.3650   -2.0527 N   0  0  0  0  0  0  0  0  0  0  0  0
    3.5988    2.9921   -2.4664 C   0  0  0  0  0  0  0  0  0  0  0  0
    2.5285    2.2470   -2.0270 C   0  0  0  0  0  0  0  0  0  0  0  0
    3.0421    1.1267   -1.3182 C   0  0  0  0  0  0  0  0  0  0  0  0
    2.4434    0.0361   -0.6545 C   0  0  0  0  0  0  0  0  0  0  0  0
    3.2453   -0.9309   -0.0256 C   0  0  0  0  0  0  0  0  0  0  0  0
    2.6607   -2.0978    0.6529 C   0  0  0  0  0  0  0  0  0  0  0  0
    1.5643   -2.0343    1.4275 C   0  0  0  0  0  0  0  0  0  0  0  0
    0.9475   -3.1446    2.1022 C   0  0  0  0  0  0  0  0  0  0  0  0
    1.6406   -4.3223    2.5304 C   0  0  0  0  0  0  0  0  0  0  0  0
    0.8233   -5.1981    3.2050 C   0  0  0  0  0  0  0  0  0  0  0  0
   -0.7695   -4.6103    3.3380 S   0  0  0  0  0  0  0  0  0  0  0  0
   -0.4022   -3.1750    2.4465 C   0  0  0  0  0  0  0  0  0  0  0  0
   -1.4731   -2.2605    2.2077 C   0  0  0  0  0  0  0  0  0  0  0  0
   -1.6795   -1.7247    0.9936 C   0  0  0  0  0  0  0  0  0  0  0  0
   -2.7634   -0.7792    0.6904 C   0  0  0  0  0  0  0  0  0  0  0  0
   -4.0582   -0.9483    1.1910 C   0  0  0  0  0  0  0  0  0  0  0  0
   -5.0889   -0.0545    0.8742 C   0  0  0  0  0  0  0  0  0  0  0  0
   -4.7897    1.0201    0.0244 C   0  0  0  0  0  0  0  0  0  0  0  0
   -3.5115    1.2095   -0.5055 C   0  0  0  0  0  0  0  0  0  0  0  0
   -3.5597    2.3744   -1.3190 C   0  0  0  0  0  0  0  0  0  0  0  0
   -4.8438    2.8671   -1.2710 C   0  0  0  0  0  0  0  0  0  0  0  0
   -5.5784    2.0439   -0.4591 N   0  0  0  0  0  0  0  0  0  0  0  0
   -6.9802    2.2243   -0.1546 C   0  0  0  0  0  0  0  0  0  0  0  0
   -2.4914    0.2948   -0.1727 C   0  0  0  0  0  0  0  0  0  0  0  0
    4.6374   -0.8165   -0.0901 C   0  0  0  0  0  0  0  0  0  0  0  0
    5.2562    0.2565   -0.7438 C   0  0  0  0  0  0  0  0  0  0  0  0
    4.4353    1.2187   -1.3495 C   0  0  0  0  0  0  0  0  0  0  0  0
    6.6096    2.0788   -2.9027 H   0  0  0  0  0  0  0  0  0  0  0  0
    6.0381    3.7732   -2.8825 H   0  0  0  0  0  0  0  0  0  0  0  0
    6.5868    3.0085   -1.3626 H   0  0  0  0  0  0  0  0  0  0  0  0
    3.6319    3.9114   -3.0363 H   0  0  0  0  0  0  0  0  0  0  0  0
    1.4858    2.4816   -2.1950 H   0  0  0  0  0  0  0  0  0  0  0  0
    1.3608   -0.0462   -0.6468 H   0  0  0  0  0  0  0  0  0  0  0  0
    3.1770   -3.0396    0.4902 H   0  0  0  0  0  0  0  0  0  0  0  0
    1.0872   -1.0655    1.5688 H   0  0  0  0  0  0  0  0  0  0  0  0
    2.6949   -4.5142    2.3752 H   0  0  0  0  0  0  0  0  0  0  0  0
    1.0910   -6.1510    3.6398 H   0  0  0  0  0  0  0  0  0  0  0  0
   -2.1380   -2.0334    3.0372 H   0  0  0  0  0  0  0  0  0  0  0  0
   -1.0269   -1.9656    0.1572 H   0  0  0  0  0  0  0  0  0  0  0  0
   -4.2914   -1.7950    1.8336 H   0  0  0  0  0  0  0  0  0  0  0  0
   -6.0865   -0.2025    1.2744 H   0  0  0  0  0  0  0  0  0  0  0  0
   -2.7400    2.8048   -1.8788 H   0  0  0  0  0  0  0  0  0  0  0  0
   -5.2861    3.7316   -1.7485 H   0  0  0  0  0  0  0  0  0  0  0  0
   -7.0869    2.3430    0.9267 H   0  0  0  0  0  0  0  0  0  0  0  0
   -7.5258    1.3439   -0.5038 H   0  0  0  0  0  0  0  0  0  0  0  0
   -7.3542    3.1167   -0.6630 H   0  0  0  0  0  0  0  0  0  0  0  0
   -1.4959    0.4376   -0.5833 H   0  0  0  0  0  0  0  0  0  0  0  0
    5.2681   -1.5668    0.3832 H   0  0  0  0  0  0  0  0  0  0  0  0
    6.3382    0.3309   -0.7752 H   0  0  0  0  0  0  0  0  0  0  0  0
  1  2  1  0
  2  3  1  0
  3  4  2  0
  4  5  1  0
  5  6  2  0
  6  7  1  0
  7  8  1  0
  8  9  2  0
  9 10  1  0
 10 11  1  0
 11 12  2  0
 12 13  1  0
 13 14  1  0
 14 15  1  0
 15 16  2  0
 16 17  1  0
 17 18  2  0
 18 19  1  0
 19 20  2  0
 20 21  1  0
 21 22  1  0
 22 23  2  0
 23 24  1  0
 24 25  1  0
 21 26  2  0
  7 27  2  0
 27 28  1  0
 28 29  2  0
 29  2  1  0
 29  5  1  0
 14 10  2  0
 26 17  1  0
 24 20  1  0
  1 30  1  0
  1 31  1  0
  1 32  1  0
  3 33  1  0
  4 34  1  0
  6 35  1  0
  8 36  1  0
  9 37  1  0
 11 38  1  0
 12 39  1  0
 15 40  1  0
 16 41  1  0
 18 42  1  0
 19 43  1  0
 22 44  1  0
 23 45  1  0
 25 46  1  0
 25 47  1  0
 25 48  1  0
 26 49  1  0
 27 50  1  0
 28 51  1  0
M  END
$$$$
