
     RDKit          3D

 95105  0  0  0  0  0  0  0  0999 V2000
  -12.1706    3.0493   -1.3755 C   0  0  0  0  0  0  0  0  0  0  0  0
  -12.7198    1.9395   -2.0152 C   0  0  0  0  0  0  0  0  0  0  0  0
  -12.4248    0.6533   -1.5577 C   0  0  0  0  0  0  0  0  0  0  0  0
  -11.5666    0.4637   -0.4657 C   0  0  0  0  0  0  0  0  0  0  0  0
  -11.2811   -0.9003   -0.0026 C   0  0  0  0  0  0  0  0  0  0  0  0
  -12.2363   -1.7750    0.2594 N   0  0  0  0  0  0  0  0  0  0  0  0
  -11.6178   -2.8672    0.7932 C   0  0  0  0  0  0  0  0  0  0  0  0
  -12.1942   -4.0608    1.2556 C   0  0  0  0  0  0  0  0  0  0  0  0
  -11.3628   -5.0777    1.7334 C   0  0  0  0  0  0  0  0  0  0  0  0
   -9.9797   -4.9151    1.7353 C   0  0  0  0  0  0  0  0  0  0  0  0
   -9.3887   -3.7314    1.2762 C   0  0  0  0  0  0  0  0  0  0  0  0
  -10.2369   -2.6996    0.8334 C   0  0  0  0  0  0  0  0  0  0  0  0
  -10.0204   -1.4344    0.2897 N   0  0  0  0  0  0  0  0  0  0  0  0
   -8.7494   -0.8363    0.0471 C   0  0  0  0  0  0  0  0  0  0  0  0
   -7.7208   -0.9600    0.9859 C   0  0  0  0  0  0  0  0  0  0  0  0
   -6.4745   -0.3705    0.7436 C   0  0  0  0  0  0  0  0  0  0  0  0
   -6.2243    0.3496   -0.4360 C   0  0  0  0  0  0  0  0  0  0  0  0
   -4.9084    0.9623   -0.6912 C   0  0  0  0  0  0  0  0  0  0  0  0
   -3.7240    0.2243   -0.5491 C   0  0  0  0  0  0  0  0  0  0  0  0
   -2.4735    0.8049   -0.7976 C   0  0  0  0  0  0  0  0  0  0  0  0
   -2.3647    2.1421   -1.2000 C   0  0  0  0  0  0  0  0  0  0  0  0
   -1.0642    2.7475   -1.4739 C   0  0  0  0  0  0  0  0  0  0  0  0
   -0.6493    3.9211   -2.0708 C   0  0  0  0  0  0  0  0  0  0  0  0
    0.7677    3.9197   -2.0331 C   0  0  0  0  0  0  0  0  0  0  0  0
    1.1475    2.7506   -1.4051 C   0  0  0  0  0  0  0  0  0  0  0  0
    2.4300    2.1474   -1.0534 C   0  0  0  0  0  0  0  0  0  0  0  0
    3.6228    2.6281   -1.6073 C   0  0  0  0  0  0  0  0  0  0  0  0
    4.8565    2.0552   -1.2688 C   0  0  0  0  0  0  0  0  0  0  0  0
    4.9386    0.9869   -0.3628 C   0  0  0  0  0  0  0  0  0  0  0  0
    6.2364    0.3887   -0.0024 C   0  0  0  0  0  0  0  0  0  0  0  0
    7.3230    1.1902    0.3841 C   0  0  0  0  0  0  0  0  0  0  0  0
    8.5563    0.6265    0.7313 C   0  0  0  0  0  0  0  0  0  0  0  0
    8.7257   -0.7617    0.7024 C   0  0  0  0  0  0  0  0  0  0  0  0
    9.9773   -1.3421    1.0615 N   0  0  0  0  0  0  0  0  0  0  0  0
   11.2563   -0.8691    0.7458 C   0  0  0  0  0  0  0  0  0  0  0  0
   11.5792    0.2344   -0.1677 C   0  0  0  0  0  0  0  0  0  0  0  0
   11.0315    0.3111   -1.4562 C   0  0  0  0  0  0  0  0  0  0  0  0
   11.3665    1.3673   -2.3072 C   0  0  0  0  0  0  0  0  0  0  0  0
   12.2624    2.3477   -1.8837 C   0  0  0  0  0  0  0  0  0  0  0  0
   12.8321    2.2690   -0.6144 C   0  0  0  0  0  0  0  0  0  0  0  0
   12.4970    1.2137    0.2365 C   0  0  0  0  0  0  0  0  0  0  0  0
   12.1879   -1.5989    1.3341 N   0  0  0  0  0  0  0  0  0  0  0  0
   11.5321   -2.6019    1.9850 C   0  0  0  0  0  0  0  0  0  0  0  0
   12.0720   -3.6529    2.7430 C   0  0  0  0  0  0  0  0  0  0  0  0
   11.2068   -4.5587    3.3627 C   0  0  0  0  0  0  0  0  0  0  0  0
    9.8271   -4.4125    3.2414 C   0  0  0  0  0  0  0  0  0  0  0  0
    9.2723   -3.3683    2.4912 C   0  0  0  0  0  0  0  0  0  0  0  0
   10.1530   -2.4841    1.8413 C   0  0  0  0  0  0  0  0  0  0  0  0
    7.6560   -1.5757    0.3182 C   0  0  0  0  0  0  0  0  0  0  0  0
    6.4281   -1.0023   -0.0323 C   0  0  0  0  0  0  0  0  0  0  0  0
    3.7407    0.5095    0.1896 C   0  0  0  0  0  0  0  0  0  0  0  0
    2.5071    1.0793   -0.1507 C   0  0  0  0  0  0  0  0  0  0  0  0
    0.0312    2.0389   -1.0668 O   0  0  0  0  0  0  0  0  0  0  0  0
   -3.5441    2.8835   -1.3422 C   0  0  0  0  0  0  0  0  0  0  0  0
   -4.7949    2.3028   -1.0904 C   0  0  0  0  0  0  0  0  0  0  0  0
   -7.2697    0.4640   -1.3664 C   0  0  0  0  0  0  0  0  0  0  0  0
   -8.5200   -0.1193   -1.1316 C   0  0  0  0  0  0  0  0  0  0  0  0
  -11.0408    1.5888    0.1855 C   0  0  0  0  0  0  0  0  0  0  0  0
  -11.3354    2.8751   -0.2731 C   0  0  0  0  0  0  0  0  0  0  0  0
  -12.4057    4.0506   -1.7274 H   0  0  0  0  0  0  0  0  0  0  0  0
  -13.3855    2.0731   -2.8641 H   0  0  0  0  0  0  0  0  0  0  0  0
  -12.8718   -0.2076   -2.0520 H   0  0  0  0  0  0  0  0  0  0  0  0
  -13.2714   -4.1848    1.2294 H   0  0  0  0  0  0  0  0  0  0  0  0
  -11.8015   -6.0063    2.0902 H   0  0  0  0  0  0  0  0  0  0  0  0
   -9.3456   -5.7262    2.0886 H   0  0  0  0  0  0  0  0  0  0  0  0
   -8.3079   -3.6431    1.2505 H   0  0  0  0  0  0  0  0  0  0  0  0
   -7.8748   -1.4663    1.9358 H   0  0  0  0  0  0  0  0  0  0  0  0
   -5.6975   -0.4617    1.5010 H   0  0  0  0  0  0  0  0  0  0  0  0
   -3.7616   -0.8231   -0.2563 H   0  0  0  0  0  0  0  0  0  0  0  0
   -1.5817    0.1919   -0.6828 H   0  0  0  0  0  0  0  0  0  0  0  0
   -1.2869    4.6850   -2.4919 H   0  0  0  0  0  0  0  0  0  0  0  0
    1.4280    4.6857   -2.4134 H   0  0  0  0  0  0  0  0  0  0  0  0
    3.6120    3.4493   -2.3198 H   0  0  0  0  0  0  0  0  0  0  0  0
    5.7587    2.4483   -1.7338 H   0  0  0  0  0  0  0  0  0  0  0  0
    7.2120    2.2721    0.4380 H   0  0  0  0  0  0  0  0  0  0  0  0
    9.3521    1.2931    1.0566 H   0  0  0  0  0  0  0  0  0  0  0  0
   10.3470   -0.4549   -1.8133 H   0  0  0  0  0  0  0  0  0  0  0  0
   10.9345    1.4191   -3.3033 H   0  0  0  0  0  0  0  0  0  0  0  0
   12.5270    3.1664   -2.5480 H   0  0  0  0  0  0  0  0  0  0  0  0
   13.5449    3.0221   -0.2883 H   0  0  0  0  0  0  0  0  0  0  0  0
   12.9593    1.1505    1.2200 H   0  0  0  0  0  0  0  0  0  0  0  0
   13.1475   -3.7466    2.8459 H   0  0  0  0  0  0  0  0  0  0  0  0
   11.6170   -5.3736    3.9541 H   0  0  0  0  0  0  0  0  0  0  0  0
    9.1675   -5.1141    3.7488 H   0  0  0  0  0  0  0  0  0  0  0  0
    8.1948   -3.2519    2.4428 H   0  0  0  0  0  0  0  0  0  0  0  0
    7.7639   -2.6544    0.2334 H   0  0  0  0  0  0  0  0  0  0  0  0
    5.6187   -1.6573   -0.3511 H   0  0  0  0  0  0  0  0  0  0  0  0
    3.7546   -0.3078    0.9077 H   0  0  0  0  0  0  0  0  0  0  0  0
    1.6039    0.6830    0.3093 H   0  0  0  0  0  0  0  0  0  0  0  0
   -3.5102    3.9276   -1.6432 H   0  0  0  0  0  0  0  0  0  0  0  0
   -5.6865    2.9175   -1.1997 H   0  0  0  0  0  0  0  0  0  0  0  0
   -7.1120    0.9973   -2.3025 H   0  0  0  0  0  0  0  0  0  0  0  0
   -9.2811   -0.0289   -1.9033 H   0  0  0  0  0  0  0  0  0  0  0  0
  -10.4044    1.4752    1.0602 H   0  0  0  0  0  0  0  0  0  0  0  0
  -10.9208    3.7408    0.2370 H   0  0  0  0  0  0  0  0  0  0  0  0
  1  2  2  0
  2  3  1  0
  3  4  2  0
  4  5  1  0
  5  6  2  0
  6  7  1  0
  7  8  2  0
  8  9  1  0
  9 10  2  0
 10 11  1  0
 11 12  2  0
 12 13  1  0
 13 14  1  0
 14 15  2  0
 15 16  1  0
 16 17  2  0
 17 18  1  0
 18 19  2  0
 19 20  1  0
 20 21  2  0
 21 22  1  0
 22 23  2  0
 23 24  1  0
 24 25  2  0
 25 26  1  0
 26 27  2  0
 27 28  1  0
 28 29  2  0
 29 30  1  0
 30 31  2  0
 31 32  1  0
 32 33  2  0
 33 34  1  0
 34 35  1  0
 35 36  1  0
 36 37  2  0
 37 38  1  0
 38 39  2  0
 39 40  1  0
 40 41  2  0
 35 42  2  0
 42 43  1  0
 43 44  2  0
 44 45  1  0
 45 46  2  0
 46 47  1  0
 47 48  2  0
 33 49  1  0
 49 50  2  0
 29 51  1  0
 51 52  2  0
 25 53  1  0
 21 54  1  0
 54 55  2  0
 17 56  1  0
 56 57  2  0
  4 58  1  0
 58 59  2  0
 59  1  1  0
 13  5  1  0
 57 14  1  0
 12  7  1  0
 55 18  1  0
 53 22  1  0
 52 26  1  0
 50 30  1  0
 48 34  1  0
 41 36  1  0
 48 43  1  0
  1 60  1  0
  2 61  1  0
  3 62  1  0
  8 63  1  0
  9 64  1  0
 10 65  1  0
 11 66  1  0
 15 67  1  0
 16 68  1  0
 19 69  1  0
 20 70  1  0
 23 71  1  0
 24 72  1  0
 27 73  1  0
 28 74  1  0
 31 75  1  0
 32 76  1  0
 37 77  1  0
 38 78  1  0
 39 79  1  0
 40 80  1  0
 41 81  1  0
 44 82  1  0
 45 83  1  0
 46 84  1  0
 47 85  1  0
 49 86  1  0
 50 87  1  0
 51 88  1  0
 52 89  1  0
 54 90  1  0
 55 91  1  0
 56 92  1  0
 57 93  1  0
 58 94  1  0
 59 95  1  0
M  END
$$$$
