
     RDKit          3D

 83 89  0  0  0  0  0  0  0  0999 V2000
  -14.0671   -0.5223    1.5897 C   0  0  0  0  0  0  0  0  0  0  0  0
  -13.8540    0.9946    1.6518 C   0  0  0  0  0  0  0  0  0  0  0  0
  -15.0891    1.6903    1.0615 C   0  0  0  0  0  0  0  0  0  0  0  0
  -13.6549    1.4849    3.0903 C   0  0  0  0  0  0  0  0  0  0  0  0
  -12.7572    1.4063    0.7972 O   0  0  0  0  0  0  0  0  0  0  0  0
  -11.4963    0.9702    1.0448 C   0  0  0  0  0  0  0  0  0  0  0  0
  -11.1191    0.2345    1.9426 O   0  0  0  0  0  0  0  0  0  0  0  0
  -10.6046    1.4986    0.0839 N   0  0  0  0  0  0  0  0  0  0  0  0
  -10.9398    2.3547   -0.9593 C   0  0  0  0  0  0  0  0  0  0  0  0
   -9.8133    2.6601   -1.6820 C   0  0  0  0  0  0  0  0  0  0  0  0
   -8.7267    1.9751   -1.0870 C   0  0  0  0  0  0  0  0  0  0  0  0
   -7.3496    1.9011   -1.3902 C   0  0  0  0  0  0  0  0  0  0  0  0
   -6.4786    1.1145   -0.6132 C   0  0  0  0  0  0  0  0  0  0  0  0
   -5.0463    1.0205   -0.9379 C   0  0  0  0  0  0  0  0  0  0  0  0
   -4.5944    0.7668   -2.2377 C   0  0  0  0  0  0  0  0  0  0  0  0
   -3.2280    0.6439   -2.5002 C   0  0  0  0  0  0  0  0  0  0  0  0
   -2.3221    0.7729   -1.4511 C   0  0  0  0  0  0  0  0  0  0  0  0
   -0.8812    0.5859   -1.6753 C   0  0  0  0  0  0  0  0  0  0  0  0
   -0.3167    0.4075   -2.8570 N   0  0  0  0  0  0  0  0  0  0  0  0
    1.0418    0.1873   -2.7682 N   0  0  0  0  0  0  0  0  0  0  0  0
    1.4792    0.2014   -1.5209 C   0  0  0  0  0  0  0  0  0  0  0  0
    2.8654   -0.0704   -1.1128 C   0  0  0  0  0  0  0  0  0  0  0  0
    3.8084   -0.4969   -2.0420 C   0  0  0  0  0  0  0  0  0  0  0  0
    5.1030   -0.7944   -1.6098 C   0  0  0  0  0  0  0  0  0  0  0  0
    5.4495   -0.6608   -0.2608 C   0  0  0  0  0  0  0  0  0  0  0  0
    6.7929   -0.9979    0.2363 C   0  0  0  0  0  0  0  0  0  0  0  0
    7.9433   -0.5265   -0.4044 C   0  0  0  0  0  0  0  0  0  0  0  0
    9.2324   -0.8504    0.0430 C   0  0  0  0  0  0  0  0  0  0  0  0
    9.3759   -1.6757    1.1738 C   0  0  0  0  0  0  0  0  0  0  0  0
    8.2430   -2.1572    1.8426 C   0  0  0  0  0  0  0  0  0  0  0  0
    8.6838   -2.9487    2.9286 C   0  0  0  0  0  0  0  0  0  0  0  0
   10.0543   -2.9431    2.9085 C   0  0  0  0  0  0  0  0  0  0  0  0
   10.5058   -2.1764    1.8399 N   0  0  0  0  0  0  0  0  0  0  0  0
   11.8792   -2.0023    1.5553 C   0  0  0  0  0  0  0  0  0  0  0  0
   12.7295   -2.5394    2.2497 O   0  0  0  0  0  0  0  0  0  0  0  0
   12.0649   -1.2126    0.4735 O   0  0  0  0  0  0  0  0  0  0  0  0
   13.4042   -0.9305   -0.0053 C   0  0  0  0  0  0  0  0  0  0  0  0
   14.1025   -2.2114   -0.4755 C   0  0  0  0  0  0  0  0  0  0  0  0
   14.2292   -0.1810    1.0471 C   0  0  0  0  0  0  0  0  0  0  0  0
   13.2012   -0.0074   -1.2159 C   0  0  0  0  0  0  0  0  0  0  0  0
    6.9575   -1.8160    1.3678 C   0  0  0  0  0  0  0  0  0  0  0  0
    4.4384   -0.2072    0.5854 C   0  0  0  0  0  0  0  0  0  0  0  0
    3.1711    0.0838    0.1991 N   0  0  0  0  0  0  0  0  0  0  0  0
    0.2417    0.5337   -0.3704 S   0  0  0  0  0  0  0  0  0  0  0  0
   -2.7239    1.0397   -0.1843 N   0  0  0  0  0  0  0  0  0  0  0  0
   -4.0568    1.1576    0.0358 C   0  0  0  0  0  0  0  0  0  0  0  0
   -7.0161    0.4109    0.4726 C   0  0  0  0  0  0  0  0  0  0  0  0
   -8.3767    0.4711    0.8003 C   0  0  0  0  0  0  0  0  0  0  0  0
   -9.2266    1.2600    0.0056 C   0  0  0  0  0  0  0  0  0  0  0  0
  -14.9879   -0.8158    2.1053 H   0  0  0  0  0  0  0  0  0  0  0  0
  -14.1235   -0.8672    0.5511 H   0  0  0  0  0  0  0  0  0  0  0  0
  -13.2421   -1.0681    2.0571 H   0  0  0  0  0  0  0  0  0  0  0  0
  -15.2398    1.3936    0.0181 H   0  0  0  0  0  0  0  0  0  0  0  0
  -14.9592    2.7783    1.0574 H   0  0  0  0  0  0  0  0  0  0  0  0
  -15.9986    1.4527    1.6231 H   0  0  0  0  0  0  0  0  0  0  0  0
  -13.4039    2.5509    3.1070 H   0  0  0  0  0  0  0  0  0  0  0  0
  -12.8349    0.9602    3.5888 H   0  0  0  0  0  0  0  0  0  0  0  0
  -14.5564    1.3292    3.6927 H   0  0  0  0  0  0  0  0  0  0  0  0
  -11.9641    2.6767   -1.0951 H   0  0  0  0  0  0  0  0  0  0  0  0
   -9.7776    3.3063   -2.5502 H   0  0  0  0  0  0  0  0  0  0  0  0
   -6.9685    2.4699   -2.2351 H   0  0  0  0  0  0  0  0  0  0  0  0
   -5.3015    0.6355   -3.0540 H   0  0  0  0  0  0  0  0  0  0  0  0
   -2.8849    0.4267   -3.5081 H   0  0  0  0  0  0  0  0  0  0  0  0
    3.5424   -0.6196   -3.0883 H   0  0  0  0  0  0  0  0  0  0  0  0
    5.8302   -1.1546   -2.3335 H   0  0  0  0  0  0  0  0  0  0  0  0
    7.8542    0.1210   -1.2759 H   0  0  0  0  0  0  0  0  0  0  0  0
   10.0861   -0.4548   -0.4967 H   0  0  0  0  0  0  0  0  0  0  0  0
    8.0648   -3.4692    3.6477 H   0  0  0  0  0  0  0  0  0  0  0  0
   10.7706   -3.4249    3.5625 H   0  0  0  0  0  0  0  0  0  0  0  0
   14.3274   -2.8833    0.3584 H   0  0  0  0  0  0  0  0  0  0  0  0
   15.0486   -1.9869   -0.9793 H   0  0  0  0  0  0  0  0  0  0  0  0
   13.4633   -2.7722   -1.1670 H   0  0  0  0  0  0  0  0  0  0  0  0
   14.4654   -0.8124    1.9083 H   0  0  0  0  0  0  0  0  0  0  0  0
   15.1788    0.1718    0.6313 H   0  0  0  0  0  0  0  0  0  0  0  0
   13.6752    0.6820    1.4341 H   0  0  0  0  0  0  0  0  0  0  0  0
   14.1533    0.2729   -1.6786 H   0  0  0  0  0  0  0  0  0  0  0  0
   12.6772    0.9096   -0.9215 H   0  0  0  0  0  0  0  0  0  0  0  0
   12.5740   -0.4903   -1.9744 H   0  0  0  0  0  0  0  0  0  0  0  0
    6.0906   -2.2181    1.8871 H   0  0  0  0  0  0  0  0  0  0  0  0
    4.6229   -0.0548    1.6467 H   0  0  0  0  0  0  0  0  0  0  0  0
   -4.3160    1.3753    1.0701 H   0  0  0  0  0  0  0  0  0  0  0  0
   -6.3746   -0.2228    1.0852 H   0  0  0  0  0  0  0  0  0  0  0  0
   -8.7504   -0.0970    1.6487 H   0  0  0  0  0  0  0  0  0  0  0  0
  1  2  1  0
  2  3  1  0
  2  4  1  0
  2  5  1  0
  5  6  1  0
  6  7  2  0
  6  8  1  0
  8  9  1  0
  9 10  2  0
 10 11  1  0
 11 12  2  0
 12 13  1  0
 13 14  1  0
 14 15  2  0
 15 16  1  0
 16 17  2  0
 17 18  1  0
 18 19  2  0
 19 20  1  0
 20 21  2  0
 21 22  1  0
 22 23  2  0
 23 24  1  0
 24 25  2  0
 25 26  1  0
 26 27  2  0
 27 28  1  0
 28 29  2  0
 29 30  1  0
 30 31  1  0
 31 32  2  0
 32 33  1  0
 33 34  1  0
 34 35  2  0
 34 36  1  0
 36 37  1  0
 37 38  1  0
 37 39  1  0
 37 40  1  0
 30 41  2  0
 25 42  1  0
 42 43  2  0
 21 44  1  0
 17 45  1  0
 45 46  2  0
 13 47  2  0
 47 48  1  0
 48 49  2  0
 49  8  1  0
 49 11  1  0
 46 14  1  0
 44 18  1  0
 43 22  1  0
 41 26  1  0
 33 29  1  0
  1 50  1  0
  1 51  1  0
  1 52  1  0
  3 53  1  0
  3 54  1  0
  3 55  1  0
  4 56  1  0
  4 57  1  0
  4 58  1  0
  9 59  1  0
 10 60  1  0
 12 61  1  0
 15 62  1  0
 16 63  1  0
 23 64  1  0
 24 65  1  0
 27 66  1  0
 28 67  1  0
 31 68  1  0
 32 69  1  0
 38 70  1  0
 38 71  1  0
 38 72  1  0
 39 73  1  0
 39 74  1  0
 39 75  1  0
 40 76  1  0
 40 77  1  0
 40 78  1  0
 41 79  1  0
 42 80  1  0
 46 81  1  0
 47 82  1  0
 48 83  1  0
M  END
$$$$
