
     RDKit          3D

 83 91  0  0  0  0  0  0  0  0999 V2000
   -1.4330   -3.7269   -0.4095 C   0  0  0  0  0  0  0  0  0  0  0  0
   -1.3302   -4.7714    0.4314 C   0  0  0  0  0  0  0  0  0  0  0  0
   -0.3669   -5.8216    0.3055 C   0  0  0  0  0  0  0  0  0  0  0  0
   -0.6651   -7.2029    0.4315 C   0  0  0  0  0  0  0  0  0  0  0  0
    0.5088   -7.8651    0.1857 C   0  0  0  0  0  0  0  0  0  0  0  0
    1.5065   -6.9842   -0.0570 O   0  0  0  0  0  0  0  0  0  0  0  0
    1.0054   -5.7014    0.0540 C   0  0  0  0  0  0  0  0  0  0  0  0
    1.8653   -4.5743   -0.1008 C   0  0  0  0  0  0  0  0  0  0  0  0
    1.7382   -3.4744    0.6573 C   0  0  0  0  0  0  0  0  0  0  0  0
    2.5710   -2.2742    0.5164 C   0  0  0  0  0  0  0  0  0  0  0  0
    3.9470   -2.3375    0.2682 C   0  0  0  0  0  0  0  0  0  0  0  0
    4.7046   -1.1666    0.1563 C   0  0  0  0  0  0  0  0  0  0  0  0
    4.0896    0.0833    0.2959 C   0  0  0  0  0  0  0  0  0  0  0  0
    4.8543    1.2784    0.1617 N   0  0  0  0  0  0  0  0  0  0  0  0
    4.4742    2.4606   -0.4852 C   0  0  0  0  0  0  0  0  0  0  0  0
    3.2758    2.6607   -1.3123 C   0  0  0  0  0  0  0  0  0  0  0  0
    2.8883    1.7387   -2.2966 C   0  0  0  0  0  0  0  0  0  0  0  0
    1.7437    1.9585   -3.0669 C   0  0  0  0  0  0  0  0  0  0  0  0
    0.9861    3.1134   -2.8776 C   0  0  0  0  0  0  0  0  0  0  0  0
    1.3789    4.0533   -1.9255 C   0  0  0  0  0  0  0  0  0  0  0  0
    2.5192    3.8307   -1.1501 C   0  0  0  0  0  0  0  0  0  0  0  0
    5.3857    3.4026   -0.3150 N   0  0  0  0  0  0  0  0  0  0  0  0
    6.4087    2.8248    0.3791 C   0  0  0  0  0  0  0  0  0  0  0  0
    7.6213    3.3990    0.7926 C   0  0  0  0  0  0  0  0  0  0  0  0
    8.5195    2.6279    1.5366 C   0  0  0  0  0  0  0  0  0  0  0  0
    8.2105    1.3121    1.8744 C   0  0  0  0  0  0  0  0  0  0  0  0
    7.0048    0.7257    1.4708 C   0  0  0  0  0  0  0  0  0  0  0  0
    6.1237    1.4996    0.6931 C   0  0  0  0  0  0  0  0  0  0  0  0
    2.7170    0.1534    0.5625 C   0  0  0  0  0  0  0  0  0  0  0  0
    1.9676   -1.0202    0.6787 C   0  0  0  0  0  0  0  0  0  0  0  0
   -2.3776   -2.6100   -0.2705 C   0  0  0  0  0  0  0  0  0  0  0  0
   -2.0082   -1.3612   -0.7885 C   0  0  0  0  0  0  0  0  0  0  0  0
   -2.8648   -0.2595   -0.6921 C   0  0  0  0  0  0  0  0  0  0  0  0
   -4.1161   -0.3972   -0.0814 C   0  0  0  0  0  0  0  0  0  0  0  0
   -4.9884    0.7244    0.0409 N   0  0  0  0  0  0  0  0  0  0  0  0
   -4.6386    2.0472    0.3427 C   0  0  0  0  0  0  0  0  0  0  0  0
   -3.3076    2.5402    0.7265 C   0  0  0  0  0  0  0  0  0  0  0  0
   -2.8059    3.6969    0.1130 C   0  0  0  0  0  0  0  0  0  0  0  0
   -1.5464    4.1940    0.4539 C   0  0  0  0  0  0  0  0  0  0  0  0
   -0.7795    3.5452    1.4207 C   0  0  0  0  0  0  0  0  0  0  0  0
   -1.2782    2.4118    2.0610 C   0  0  0  0  0  0  0  0  0  0  0  0
   -2.5398    1.9162    1.7214 C   0  0  0  0  0  0  0  0  0  0  0  0
   -5.6989    2.8360    0.2960 N   0  0  0  0  0  0  0  0  0  0  0  0
   -6.7647    2.0317    0.0168 C   0  0  0  0  0  0  0  0  0  0  0  0
   -8.1167    2.3860   -0.1238 C   0  0  0  0  0  0  0  0  0  0  0  0
   -9.0475    1.3980   -0.4574 C   0  0  0  0  0  0  0  0  0  0  0  0
   -8.6364    0.0831   -0.6637 C   0  0  0  0  0  0  0  0  0  0  0  0
   -7.2919   -0.2865   -0.5289 C   0  0  0  0  0  0  0  0  0  0  0  0
   -6.3694    0.7082   -0.1537 C   0  0  0  0  0  0  0  0  0  0  0  0
   -4.5030   -1.6461    0.4180 C   0  0  0  0  0  0  0  0  0  0  0  0
   -3.6394   -2.7434    0.3201 C   0  0  0  0  0  0  0  0  0  0  0  0
   -0.7532   -3.6534   -1.2568 H   0  0  0  0  0  0  0  0  0  0  0  0
   -2.0158   -4.8590    1.2704 H   0  0  0  0  0  0  0  0  0  0  0  0
   -1.6224   -7.6606    0.6380 H   0  0  0  0  0  0  0  0  0  0  0  0
    0.7865   -8.9086    0.1432 H   0  0  0  0  0  0  0  0  0  0  0  0
    2.6493   -4.6609   -0.8449 H   0  0  0  0  0  0  0  0  0  0  0  0
    0.9677   -3.4109    1.4216 H   0  0  0  0  0  0  0  0  0  0  0  0
    4.4465   -3.2978    0.1566 H   0  0  0  0  0  0  0  0  0  0  0  0
    5.7608   -1.2563   -0.0859 H   0  0  0  0  0  0  0  0  0  0  0  0
    3.4769    0.8414   -2.4794 H   0  0  0  0  0  0  0  0  0  0  0  0
    1.4504    1.2336   -3.8227 H   0  0  0  0  0  0  0  0  0  0  0  0
    0.0991    3.2880   -3.4805 H   0  0  0  0  0  0  0  0  0  0  0  0
    0.8021    4.9665   -1.7909 H   0  0  0  0  0  0  0  0  0  0  0  0
    2.8239    4.5778   -0.4175 H   0  0  0  0  0  0  0  0  0  0  0  0
    7.8444    4.4298    0.5399 H   0  0  0  0  0  0  0  0  0  0  0  0
    9.4592    3.0664    1.8649 H   0  0  0  0  0  0  0  0  0  0  0  0
    8.9110    0.7342    2.4744 H   0  0  0  0  0  0  0  0  0  0  0  0
    6.7681   -0.2875    1.7764 H   0  0  0  0  0  0  0  0  0  0  0  0
    2.2103    1.1048    0.7116 H   0  0  0  0  0  0  0  0  0  0  0  0
    0.9027   -0.9436    0.8925 H   0  0  0  0  0  0  0  0  0  0  0  0
   -1.0411   -1.2273   -1.2713 H   0  0  0  0  0  0  0  0  0  0  0  0
   -2.5412    0.6827   -1.1295 H   0  0  0  0  0  0  0  0  0  0  0  0
   -3.4030    4.2163   -0.6351 H   0  0  0  0  0  0  0  0  0  0  0  0
   -1.1702    5.0919   -0.0298 H   0  0  0  0  0  0  0  0  0  0  0  0
    0.2010    3.9334    1.6853 H   0  0  0  0  0  0  0  0  0  0  0  0
   -0.6893    1.9183    2.8305 H   0  0  0  0  0  0  0  0  0  0  0  0
   -2.9206    1.0443    2.2483 H   0  0  0  0  0  0  0  0  0  0  0  0
   -8.4222    3.4177    0.0180 H   0  0  0  0  0  0  0  0  0  0  0  0
  -10.0960    1.6642   -0.5721 H   0  0  0  0  0  0  0  0  0  0  0  0
   -9.3710   -0.6694   -0.9445 H   0  0  0  0  0  0  0  0  0  0  0  0
   -6.9902   -1.3085   -0.7325 H   0  0  0  0  0  0  0  0  0  0  0  0
   -5.4526   -1.7844    0.9297 H   0  0  0  0  0  0  0  0  0  0  0  0
   -3.9724   -3.7003    0.7141 H   0  0  0  0  0  0  0  0  0  0  0  0
  1  2  2  0
  2  3  1  0
  3  4  1  0
  4  5  2  0
  5  6  1  0
  6  7  1  0
  7  8  1  0
  8  9  2  0
  9 10  1  0
 10 11  2  0
 11 12  1  0
 12 13  2  0
 13 14  1  0
 14 15  1  0
 15 16  1  0
 16 17  2  0
 17 18  1  0
 18 19  2  0
 19 20  1  0
 20 21  2  0
 15 22  2  0
 22 23  1  0
 23 24  2  0
 24 25  1  0
 25 26  2  0
 26 27  1  0
 27 28  2  0
 13 29  1  0
 29 30  2  0
  1 31  1  0
 31 32  2  0
 32 33  1  0
 33 34  2  0
 34 35  1  0
 35 36  1  0
 36 37  1  0
 37 38  2  0
 38 39  1  0
 39 40  2  0
 40 41  1  0
 41 42  2  0
 36 43  2  0
 43 44  1  0
 44 45  2  0
 45 46  1  0
 46 47  2  0
 47 48  1  0
 48 49  2  0
 34 50  1  0
 50 51  2  0
  7  3  2  0
 30 10  1  0
 51 31  1  0
 28 14  1  0
 49 35  1  0
 21 16  1  0
 28 23  1  0
 42 37  1  0
 49 44  1  0
  1 52  1  0
  2 53  1  0
  4 54  1  0
  5 55  1  0
  8 56  1  0
  9 57  1  0
 11 58  1  0
 12 59  1  0
 17 60  1  0
 18 61  1  0
 19 62  1  0
 20 63  1  0
 21 64  1  0
 24 65  1  0
 25 66  1  0
 26 67  1  0
 27 68  1  0
 29 69  1  0
 30 70  1  0
 32 71  1  0
 33 72  1  0
 38 73  1  0
 39 74  1  0
 40 75  1  0
 41 76  1  0
 42 77  1  0
 45 78  1  0
 46 79  1  0
 47 80  1  0
 48 81  1  0
 50 82  1  0
 51 83  1  0
M  END
$$$$
