
     RDKit          3D

 86 92  0  0  0  0  0  0  0  0999 V2000
  -15.5720    0.3609    0.0958 C   0  0  0  0  0  0  0  0  0  0  0  0
  -14.3070    1.1104    0.5421 C   0  0  0  0  0  0  0  0  0  0  0  0
  -14.2372    2.4442   -0.2102 C   0  0  0  0  0  0  0  0  0  0  0  0
  -14.3643    1.3121    2.0602 C   0  0  0  0  0  0  0  0  0  0  0  0
  -13.2106    0.2377    0.1708 O   0  0  0  0  0  0  0  0  0  0  0  0
  -11.9260    0.6050    0.4109 C   0  0  0  0  0  0  0  0  0  0  0  0
  -11.5227    1.6320    0.9330 O   0  0  0  0  0  0  0  0  0  0  0  0
  -11.0455   -0.4029   -0.0446 N   0  0  0  0  0  0  0  0  0  0  0  0
  -11.4159   -1.6037   -0.6412 C   0  0  0  0  0  0  0  0  0  0  0  0
  -10.2923   -2.3294   -0.9496 C   0  0  0  0  0  0  0  0  0  0  0  0
   -9.1703   -1.5712   -0.5391 C   0  0  0  0  0  0  0  0  0  0  0  0
   -7.7785   -1.8006   -0.5971 C   0  0  0  0  0  0  0  0  0  0  0  0
   -6.8711   -0.8456   -0.1039 C   0  0  0  0  0  0  0  0  0  0  0  0
   -5.4204   -1.0851   -0.1628 C   0  0  0  0  0  0  0  0  0  0  0  0
   -4.8505   -2.2205    0.4310 C   0  0  0  0  0  0  0  0  0  0  0  0
   -3.4697   -2.4495    0.3757 C   0  0  0  0  0  0  0  0  0  0  0  0
   -2.6144   -1.5497   -0.2761 C   0  0  0  0  0  0  0  0  0  0  0  0
   -1.1718   -1.8135   -0.3307 C   0  0  0  0  0  0  0  0  0  0  0  0
   -0.4965   -3.0129   -0.4603 C   0  0  0  0  0  0  0  0  0  0  0  0
    0.8830   -2.9419   -0.4606 N   0  0  0  0  0  0  0  0  0  0  0  0
    1.2763   -1.6905   -0.3170 C   0  0  0  0  0  0  0  0  0  0  0  0
    2.6932   -1.2686   -0.2901 C   0  0  0  0  0  0  0  0  0  0  0  0
    3.1140   -0.0002    0.1358 C   0  0  0  0  0  0  0  0  0  0  0  0
    4.4729    0.3465    0.1401 C   0  0  0  0  0  0  0  0  0  0  0  0
    5.4568   -0.5626   -0.2765 C   0  0  0  0  0  0  0  0  0  0  0  0
    6.8806   -0.1918   -0.2663 C   0  0  0  0  0  0  0  0  0  0  0  0
    7.8145   -0.9314    0.4687 C   0  0  0  0  0  0  0  0  0  0  0  0
    9.1706   -0.5806    0.5120 C   0  0  0  0  0  0  0  0  0  0  0  0
    9.5980    0.5475   -0.2104 C   0  0  0  0  0  0  0  0  0  0  0  0
    8.6932    1.3007   -0.9650 C   0  0  0  0  0  0  0  0  0  0  0  0
    9.4170    2.3502   -1.5787 C   0  0  0  0  0  0  0  0  0  0  0  0
   10.7289    2.2269   -1.1932 C   0  0  0  0  0  0  0  0  0  0  0  0
   10.8638    1.1320   -0.3465 N   0  0  0  0  0  0  0  0  0  0  0  0
   12.0630    0.6959    0.2623 C   0  0  0  0  0  0  0  0  0  0  0  0
   12.0970   -0.2690    1.0085 O   0  0  0  0  0  0  0  0  0  0  0  0
   13.0918    1.4978   -0.1137 O   0  0  0  0  0  0  0  0  0  0  0  0
   14.4312    1.2562    0.3862 C   0  0  0  0  0  0  0  0  0  0  0  0
   14.4919    1.4279    1.9078 C   0  0  0  0  0  0  0  0  0  0  0  0
   14.9519   -0.1150   -0.0578 C   0  0  0  0  0  0  0  0  0  0  0  0
   15.2960    2.3449   -0.2681 C   0  0  0  0  0  0  0  0  0  0  0  0
    7.3327    0.9271   -0.9880 C   0  0  0  0  0  0  0  0  0  0  0  0
    5.0402   -1.8328   -0.6940 C   0  0  0  0  0  0  0  0  0  0  0  0
    3.6819   -2.1789   -0.6984 C   0  0  0  0  0  0  0  0  0  0  0  0
   -0.0143   -0.5541   -0.1925 S   0  0  0  0  0  0  0  0  0  0  0  0
   -3.1829   -0.4190   -0.8765 C   0  0  0  0  0  0  0  0  0  0  0  0
   -4.5637   -0.1884   -0.8170 C   0  0  0  0  0  0  0  0  0  0  0  0
   -7.3821    0.3364    0.4444 C   0  0  0  0  0  0  0  0  0  0  0  0
   -8.7583    0.5883    0.5154 C   0  0  0  0  0  0  0  0  0  0  0  0
   -9.6472   -0.3801    0.0182 C   0  0  0  0  0  0  0  0  0  0  0  0
  -16.4818    0.9275    0.3192 H   0  0  0  0  0  0  0  0  0  0  0  0
  -15.5472    0.1576   -0.9810 H   0  0  0  0  0  0  0  0  0  0  0  0
  -15.6433   -0.6152    0.5899 H   0  0  0  0  0  0  0  0  0  0  0  0
  -14.0995    2.2764   -1.2844 H   0  0  0  0  0  0  0  0  0  0  0  0
  -13.3941    3.0565    0.1233 H   0  0  0  0  0  0  0  0  0  0  0  0
  -15.1492    3.0330   -0.0637 H   0  0  0  0  0  0  0  0  0  0  0  0
  -13.5111    1.8908    2.4294 H   0  0  0  0  0  0  0  0  0  0  0  0
  -14.3370    0.3486    2.5828 H   0  0  0  0  0  0  0  0  0  0  0  0
  -15.2757    1.8413    2.3588 H   0  0  0  0  0  0  0  0  0  0  0  0
  -12.4604   -1.8380   -0.7951 H   0  0  0  0  0  0  0  0  0  0  0  0
  -10.2780   -3.3033   -1.4221 H   0  0  0  0  0  0  0  0  0  0  0  0
   -7.4126   -2.7239   -1.0403 H   0  0  0  0  0  0  0  0  0  0  0  0
   -5.4806   -2.9350    0.9582 H   0  0  0  0  0  0  0  0  0  0  0  0
   -3.0731   -3.3363    0.8644 H   0  0  0  0  0  0  0  0  0  0  0  0
   -0.9665   -3.9831   -0.5663 H   0  0  0  0  0  0  0  0  0  0  0  0
    2.4032    0.7435    0.4860 H   0  0  0  0  0  0  0  0  0  0  0  0
    4.7604    1.3363    0.4913 H   0  0  0  0  0  0  0  0  0  0  0  0
    7.4892   -1.7988    1.0415 H   0  0  0  0  0  0  0  0  0  0  0  0
    9.8628   -1.1775    1.1001 H   0  0  0  0  0  0  0  0  0  0  0  0
    9.0182    3.1149   -2.2329 H   0  0  0  0  0  0  0  0  0  0  0  0
   11.5888    2.8322   -1.4479 H   0  0  0  0  0  0  0  0  0  0  0  0
   15.5249    1.4062    2.2710 H   0  0  0  0  0  0  0  0  0  0  0  0
   14.0379    2.3790    2.2095 H   0  0  0  0  0  0  0  0  0  0  0  0
   13.9436    0.6377    2.4298 H   0  0  0  0  0  0  0  0  0  0  0  0
   16.0152   -0.2325    0.1773 H   0  0  0  0  0  0  0  0  0  0  0  0
   14.4185   -0.9339    0.4340 H   0  0  0  0  0  0  0  0  0  0  0  0
   14.8154   -0.2539   -1.1368 H   0  0  0  0  0  0  0  0  0  0  0  0
   16.3444    2.2706    0.0394 H   0  0  0  0  0  0  0  0  0  0  0  0
   14.9291    3.3443   -0.0067 H   0  0  0  0  0  0  0  0  0  0  0  0
   15.2495    2.2743   -1.3614 H   0  0  0  0  0  0  0  0  0  0  0  0
    6.6321    1.5148   -1.5772 H   0  0  0  0  0  0  0  0  0  0  0  0
    5.7712   -2.5665   -1.0293 H   0  0  0  0  0  0  0  0  0  0  0  0
    3.3978   -3.1761   -1.0299 H   0  0  0  0  0  0  0  0  0  0  0  0
   -2.5634    0.2957   -1.4134 H   0  0  0  0  0  0  0  0  0  0  0  0
   -4.9684    0.6963   -1.3061 H   0  0  0  0  0  0  0  0  0  0  0  0
   -6.7024    1.0875    0.8440 H   0  0  0  0  0  0  0  0  0  0  0  0
   -9.1129    1.5176    0.9521 H   0  0  0  0  0  0  0  0  0  0  0  0
  1  2  1  0
  2  3  1  0
  2  4  1  0
  2  5  1  0
  5  6  1  0
  6  7  2  0
  6  8  1  0
  8  9  1  0
  9 10  2  0
 10 11  1  0
 11 12  2  0
 12 13  1  0
 13 14  1  0
 14 15  2  0
 15 16  1  0
 16 17  2  0
 17 18  1  0
 18 19  2  0
 19 20  1  0
 20 21  2  0
 21 22  1  0
 22 23  2  0
 23 24  1  0
 24 25  2  0
 25 26  1  0
 26 27  2  0
 27 28  1  0
 28 29  2  0
 29 30  1  0
 30 31  1  0
 31 32  2  0
 32 33  1  0
 33 34  1  0
 34 35  2  0
 34 36  1  0
 36 37  1  0
 37 38  1  0
 37 39  1  0
 37 40  1  0
 30 41  2  0
 25 42  1  0
 42 43  2  0
 21 44  1  0
 17 45  1  0
 45 46  2  0
 13 47  2  0
 47 48  1  0
 48 49  2  0
 49  8  1  0
 49 11  1  0
 46 14  1  0
 44 18  1  0
 43 22  1  0
 41 26  1  0
 33 29  1  0
  1 50  1  0
  1 51  1  0
  1 52  1  0
  3 53  1  0
  3 54  1  0
  3 55  1  0
  4 56  1  0
  4 57  1  0
  4 58  1  0
  9 59  1  0
 10 60  1  0
 12 61  1  0
 15 62  1  0
 16 63  1  0
 19 64  1  0
 23 65  1  0
 24 66  1  0
 27 67  1  0
 28 68  1  0
 31 69  1  0
 32 70  1  0
 38 71  1  0
 38 72  1  0
 38 73  1  0
 39 74  1  0
 39 75  1  0
 39 76  1  0
 40 77  1  0
 40 78  1  0
 40 79  1  0
 41 80  1  0
 42 81  1  0
 43 82  1  0
 45 83  1  0
 46 84  1  0
 47 85  1  0
 48 86  1  0
M  END
$$$$
