
     RDKit          3D

 99109  0  0  0  0  0  0  0  0999 V2000
    1.8130   -2.4033    3.5297 C   0  0  0  0  0  0  0  0  0  0  0  0
    1.0405   -1.4215    2.8505 O   0  0  0  0  0  0  0  0  0  0  0  0
    1.7075   -0.5957    1.9869 C   0  0  0  0  0  0  0  0  0  0  0  0
    3.0789   -0.6206    1.7230 C   0  0  0  0  0  0  0  0  0  0  0  0
    3.6597    0.2810    0.8125 C   0  0  0  0  0  0  0  0  0  0  0  0
    5.1067    0.2523    0.5382 C   0  0  0  0  0  0  0  0  0  0  0  0
    6.0416    0.3331    1.5847 C   0  0  0  0  0  0  0  0  0  0  0  0
    7.4154    0.3112    1.3277 C   0  0  0  0  0  0  0  0  0  0  0  0
    7.8856    0.2075    0.0121 C   0  0  0  0  0  0  0  0  0  0  0  0
    9.2984    0.1876   -0.2542 N   0  0  0  0  0  0  0  0  0  0  0  0
    9.9721   -1.0948   -0.3101 C   0  0  0  0  0  0  0  0  0  0  0  0
    9.2469   -2.2984   -0.1184 C   0  0  0  0  0  0  0  0  0  0  0  0
    9.8548   -3.5568   -0.1660 C   0  0  0  0  0  0  0  0  0  0  0  0
   11.2145   -3.6550   -0.4052 C   0  0  0  0  0  0  0  0  0  0  0  0
   11.9561   -2.4934   -0.5958 C   0  0  0  0  0  0  0  0  0  0  0  0
   11.3510   -1.2206   -0.5494 C   0  0  0  0  0  0  0  0  0  0  0  0
   12.4464    0.1471   -0.8077 S   0  0  0  0  0  0  0  0  0  0  0  0
   11.3598    1.5416   -0.7049 C   0  0  0  0  0  0  0  0  0  0  0  0
   11.9725    2.7975   -0.8931 C   0  0  0  0  0  0  0  0  0  0  0  0
   11.2367    3.9770   -0.8388 C   0  0  0  0  0  0  0  0  0  0  0  0
    9.8756    3.9145   -0.5947 C   0  0  0  0  0  0  0  0  0  0  0  0
    9.2602    2.6730   -0.4068 C   0  0  0  0  0  0  0  0  0  0  0  0
    9.9800    1.4516   -0.4549 C   0  0  0  0  0  0  0  0  0  0  0  0
    6.9642    0.1261   -1.0403 C   0  0  0  0  0  0  0  0  0  0  0  0
    5.5912    0.1478   -0.7772 C   0  0  0  0  0  0  0  0  0  0  0  0
    2.8246    1.2110    0.1706 C   0  0  0  0  0  0  0  0  0  0  0  0
    1.4473    1.2478    0.4252 C   0  0  0  0  0  0  0  0  0  0  0  0
    0.5968    2.2152   -0.2464 C   0  0  0  0  0  0  0  0  0  0  0  0
    0.9073    3.5588   -0.3255 C   0  0  0  0  0  0  0  0  0  0  0  0
   -0.0648    4.2434   -0.9781 O   0  0  0  0  0  0  0  0  0  0  0  0
   -1.0178    3.3401   -1.3189 C   0  0  0  0  0  0  0  0  0  0  0  0
   -0.6739    2.0734   -0.8887 C   0  0  0  0  0  0  0  0  0  0  0  0
   -1.4999    0.9043   -1.1387 C   0  0  0  0  0  0  0  0  0  0  0  0
   -0.9328   -0.2654   -1.6547 C   0  0  0  0  0  0  0  0  0  0  0  0
   -1.7161   -1.3978   -1.8919 C   0  0  0  0  0  0  0  0  0  0  0  0
   -1.0307   -2.4671   -2.4020 O   0  0  0  0  0  0  0  0  0  0  0  0
   -1.7771   -3.6491   -2.6616 C   0  0  0  0  0  0  0  0  0  0  0  0
   -3.0832   -1.3587   -1.6082 C   0  0  0  0  0  0  0  0  0  0  0  0
   -3.6816   -0.1958   -1.0898 C   0  0  0  0  0  0  0  0  0  0  0  0
   -5.1213   -0.1578   -0.7884 C   0  0  0  0  0  0  0  0  0  0  0  0
   -5.6936   -1.0719    0.1121 C   0  0  0  0  0  0  0  0  0  0  0  0
   -7.0585   -1.0295    0.4102 C   0  0  0  0  0  0  0  0  0  0  0  0
   -7.8820   -0.0680   -0.1903 C   0  0  0  0  0  0  0  0  0  0  0  0
   -9.2843   -0.0148    0.1232 N   0  0  0  0  0  0  0  0  0  0  0  0
  -10.2019   -0.7978   -0.6808 C   0  0  0  0  0  0  0  0  0  0  0  0
   -9.7223   -1.5866   -1.7577 C   0  0  0  0  0  0  0  0  0  0  0  0
  -10.5701   -2.3576   -2.5594 C   0  0  0  0  0  0  0  0  0  0  0  0
  -11.9317   -2.3660   -2.3106 C   0  0  0  0  0  0  0  0  0  0  0  0
  -12.4356   -1.6027   -1.2618 C   0  0  0  0  0  0  0  0  0  0  0  0
  -11.5878   -0.8225   -0.4487 C   0  0  0  0  0  0  0  0  0  0  0  0
  -12.3985    0.0842    0.8386 S   0  0  0  0  0  0  0  0  0  0  0  0
  -11.0572    0.9411    1.6153 C   0  0  0  0  0  0  0  0  0  0  0  0
  -11.4189    1.7769    2.6915 C   0  0  0  0  0  0  0  0  0  0  0  0
  -10.4651    2.5068    3.3945 C   0  0  0  0  0  0  0  0  0  0  0  0
   -9.1337    2.4077    3.0292 C   0  0  0  0  0  0  0  0  0  0  0  0
   -8.7659    1.5806    1.9636 C   0  0  0  0  0  0  0  0  0  0  0  0
   -9.7124    0.8257    1.2241 C   0  0  0  0  0  0  0  0  0  0  0  0
   -7.3237    0.8445   -1.0955 C   0  0  0  0  0  0  0  0  0  0  0  0
   -5.9580    0.7983   -1.3890 C   0  0  0  0  0  0  0  0  0  0  0  0
   -2.8728    0.9301   -0.8610 C   0  0  0  0  0  0  0  0  0  0  0  0
    0.9002    0.3396    1.3365 C   0  0  0  0  0  0  0  0  0  0  0  0
    2.5674   -1.9372    4.1725 H   0  0  0  0  0  0  0  0  0  0  0  0
    2.2730   -3.1019    2.8226 H   0  0  0  0  0  0  0  0  0  0  0  0
    1.1369   -2.9761    4.1717 H   0  0  0  0  0  0  0  0  0  0  0  0
    3.7242   -1.3461    2.2091 H   0  0  0  0  0  0  0  0  0  0  0  0
    5.7041    0.4298    2.6149 H   0  0  0  0  0  0  0  0  0  0  0  0
    8.1225    0.3795    2.1509 H   0  0  0  0  0  0  0  0  0  0  0  0
    8.1771   -2.2837    0.0731 H   0  0  0  0  0  0  0  0  0  0  0  0
    9.2593   -4.4532   -0.0148 H   0  0  0  0  0  0  0  0  0  0  0  0
   11.6990   -4.6265   -0.4447 H   0  0  0  0  0  0  0  0  0  0  0  0
   13.0248   -2.5851   -0.7824 H   0  0  0  0  0  0  0  0  0  0  0  0
   13.0422    2.8613   -1.0861 H   0  0  0  0  0  0  0  0  0  0  0  0
   11.7266    4.9354   -0.9862 H   0  0  0  0  0  0  0  0  0  0  0  0
    9.2842    4.8255   -0.5496 H   0  0  0  0  0  0  0  0  0  0  0  0
    8.1895    2.6860   -0.2196 H   0  0  0  0  0  0  0  0  0  0  0  0
    7.3189    0.0443   -2.0649 H   0  0  0  0  0  0  0  0  0  0  0  0
    4.8971    0.0707   -1.6125 H   0  0  0  0  0  0  0  0  0  0  0  0
    3.2591    1.9138   -0.5385 H   0  0  0  0  0  0  0  0  0  0  0  0
    1.7383    4.1567    0.0231 H   0  0  0  0  0  0  0  0  0  0  0  0
   -1.8620    3.7430   -1.8616 H   0  0  0  0  0  0  0  0  0  0  0  0
    0.1303   -0.3061   -1.8831 H   0  0  0  0  0  0  0  0  0  0  0  0
   -1.0870   -4.4010   -3.0571 H   0  0  0  0  0  0  0  0  0  0  0  0
   -2.2145   -4.0506   -1.7415 H   0  0  0  0  0  0  0  0  0  0  0  0
   -2.5457   -3.4712   -3.4210 H   0  0  0  0  0  0  0  0  0  0  0  0
   -3.7151   -2.2228   -1.7912 H   0  0  0  0  0  0  0  0  0  0  0  0
   -5.0719   -1.8177    0.6040 H   0  0  0  0  0  0  0  0  0  0  0  0
   -7.4820   -1.7393    1.1168 H   0  0  0  0  0  0  0  0  0  0  0  0
   -8.6634   -1.6183   -2.0015 H   0  0  0  0  0  0  0  0  0  0  0  0
  -10.1586   -2.9465   -3.3752 H   0  0  0  0  0  0  0  0  0  0  0  0
  -12.6005   -2.9613   -2.9262 H   0  0  0  0  0  0  0  0  0  0  0  0
  -13.5087   -1.6184   -1.0774 H   0  0  0  0  0  0  0  0  0  0  0  0
  -12.4621    1.8631    2.9906 H   0  0  0  0  0  0  0  0  0  0  0  0
  -10.7635    3.1458    4.2209 H   0  0  0  0  0  0  0  0  0  0  0  0
   -8.3742    2.9691    3.5670 H   0  0  0  0  0  0  0  0  0  0  0  0
   -7.7062    1.5411    1.7238 H   0  0  0  0  0  0  0  0  0  0  0  0
   -7.9557    1.5915   -1.5698 H   0  0  0  0  0  0  0  0  0  0  0  0
   -5.5495    1.5149   -2.0993 H   0  0  0  0  0  0  0  0  0  0  0  0
   -3.3205    1.8278   -0.4366 H   0  0  0  0  0  0  0  0  0  0  0  0
   -0.1654    0.3548    1.5552 H   0  0  0  0  0  0  0  0  0  0  0  0
  1  2  1  0
  2  3  1  0
  3  4  2  0
  4  5  1  0
  5  6  1  0
  6  7  2  0
  7  8  1  0
  8  9  2  0
  9 10  1  0
 10 11  1  0
 11 12  2  0
 12 13  1  0
 13 14  2  0
 14 15  1  0
 15 16  2  0
 16 17  1  0
 17 18  1  0
 18 19  2  0
 19 20  1  0
 20 21  2  0
 21 22  1  0
 22 23  2  0
  9 24  1  0
 24 25  2  0
  5 26  2  0
 26 27  1  0
 27 28  1  0
 28 29  2  0
 29 30  1  0
 30 31  1  0
 31 32  2  0
 32 33  1  0
 33 34  2  0
 34 35  1  0
 35 36  1  0
 36 37  1  0
 35 38  2  0
 38 39  1  0
 39 40  1  0
 40 41  2  0
 41 42  1  0
 42 43  2  0
 43 44  1  0
 44 45  1  0
 45 46  2  0
 46 47  1  0
 47 48  2  0
 48 49  1  0
 49 50  2  0
 50 51  1  0
 51 52  1  0
 52 53  2  0
 53 54  1  0
 54 55  2  0
 55 56  1  0
 56 57  2  0
 43 58  1  0
 58 59  2  0
 39 60  2  0
 27 61  2  0
 61  3  1  0
 25  6  1  0
 32 28  1  0
 60 33  1  0
 23 10  1  0
 59 40  1  0
 16 11  1  0
 23 18  1  0
 57 44  1  0
 50 45  1  0
 57 52  1  0
  1 62  1  0
  1 63  1  0
  1 64  1  0
  4 65  1  0
  7 66  1  0
  8 67  1  0
 12 68  1  0
 13 69  1  0
 14 70  1  0
 15 71  1  0
 19 72  1  0
 20 73  1  0
 21 74  1  0
 22 75  1  0
 24 76  1  0
 25 77  1  0
 26 78  1  0
 29 79  1  0
 31 80  1  0
 34 81  1  0
 37 82  1  0
 37 83  1  0
 37 84  1  0
 38 85  1  0
 41 86  1  0
 42 87  1  0
 46 88  1  0
 47 89  1  0
 48 90  1  0
 49 91  1  0
 53 92  1  0
 54 93  1  0
 55 94  1  0
 56 95  1  0
 58 96  1  0
 59 97  1  0
 60 98  1  0
 61 99  1  0
M  END
$$$$
